data_20_2_26425-hse3c
_cell_length_a       4.35963
_cell_length_b       15.9471
_cell_length_c       4.44733
_cell_angle_alpha    90
_cell_angle_beta     102.967
_cell_angle_gamma    90

_symmetry_space_group_name_H-M    "P 1"
_symmetry_int_tables_number       1

loop_
  _symmetry_equiv_pos_as_xyz
  'x, y, z'

loop_
  _atom_site_label
  _atom_site_occupancy
  _atom_site_fract_x
  _atom_site_fract_y
  _atom_site_fract_z
  _atom_site_thermal_displace_type
  _atom_site_B_iso_or_equiv
  _atom_site_type_symbol
  H1       1.0000 0.50375  0.08658  0.16289  Biso   1.000  H
  H2       1.0000 0.28471  0.75875  0.22489  Biso   1.000  H
  H3       1.0000 0.28471  0.24125  0.72489  Biso   1.000  H
  H4       1.0000 0.75459  0.31274  0.92897  Biso   1.000  H
  H5       1.0000 0.75459  0.68726  0.42897  Biso   1.000  H
  H6       1.0000 0.25459  0.81274  0.92897  Biso   1.000  H
  H7       1.0000 0.25459  0.18726  0.42897  Biso   1.000  H
  H8       1.0000 0.66104  0.56806  0.18897  Biso   1.000  H
  H9       1.0000 0.66104  0.43194  0.68897  Biso   1.000  H
  H10      1.0000 0.16104  0.06806  0.18897  Biso   1.000  H
  H11      1.0000 0.16104  0.93194  0.68897  Biso   1.000  H
  H12      1.0000 0.00375  0.58658  0.16289  Biso   1.000  H
  H13      1.0000 0.00375  0.41342  0.66289  Biso   1.000  H
  H14      1.0000 0.78471  0.74125  0.72489  Biso   1.000  H
  H15      1.0000 0.50375  0.91342  0.66289  Biso   1.000  H
  H16      1.0000 0.78471  0.25875  0.22489  Biso   1.000  H
  H17      1.0000 0.25882  0.34566  0.40026  Biso   1.000  H
  H18      1.0000 0.25882  0.65434  0.90026  Biso   1.000  H
  H19      1.0000 0.75882  0.84566  0.40026  Biso   1.000  H
  H20      1.0000 0.75882  0.15434  0.90026  Biso   1.000  H
  H21      1.0000 0.12999  0.42508  0.21226  Biso   1.000  H
  H22      1.0000 0.62999  0.07492  0.71226  Biso   1.000  H
  H23      1.0000 0.62999  0.92508  0.21226  Biso   1.000  H
  H24      1.0000 0.12999  0.57492  0.71226  Biso   1.000  H
  O1       1.0000 0.86404  0.41353  0.80858  Biso   1.000  O
  O2       1.0000 0.75240  0.90673  0.41174  Biso   1.000  O
  O3       1.0000 0.25240  0.59327  0.91174  Biso   1.000  O
  O4       1.0000 0.25240  0.40673  0.41174  Biso   1.000  O
  O5       1.0000 0.17177  0.76273  0.01101  Biso   1.000  O
  O6       1.0000 0.67177  0.73727  0.51101  Biso   1.000  O
  O7       1.0000 0.86404  0.58647  0.30858  Biso   1.000  O
  O8       1.0000 0.17177  0.23727  0.51101  Biso   1.000  O
  O9       1.0000 0.36404  0.91353  0.80858  Biso   1.000  O
  O10      1.0000 0.36404  0.08647  0.30858  Biso   1.000  O
  O11      1.0000 0.67177  0.26273  0.01101  Biso   1.000  O
  O12      1.0000 0.75240  0.09327  0.91174  Biso   1.000  O
