
#######################################################################
#
#                 Cambridge Crystallographic Data Centre
#                                CCDC 
#
#######################################################################
#
# If this CIF has been generated from an entry in the Cambridge 
# Structural Database, then it will include bibliographic, chemical, 
# crystal, experimental, refinement or atomic coordinate data resulting 
# from the CCDC's data processing and validation procedures.
#
#######################################################################

data_20_2_26425-hse3c
_symmetry_cell_setting           monoclinic
_symmetry_space_group_name_H-M   'C c'
_symmetry_Int_Tables_number      9
_space_group_name_Hall           'C -2yc'
loop_
_symmetry_equiv_pos_site_id
_symmetry_equiv_pos_as_xyz
1 x,y,z
2 x,-y,1/2+z
3 1/2+x,1/2+y,z
4 1/2+x,1/2-y,1/2+z
_cell_length_a                   4.35962729
_cell_length_b                   15.94709316
_cell_length_c                   4.44732580
_cell_angle_alpha                90.000000
_cell_angle_beta                 102.966740
_cell_angle_gamma                90.000000
_cell_volume                     301.309
loop_
_atom_site_label
_atom_site_type_symbol
_atom_site_fract_x
_atom_site_fract_y
_atom_site_fract_z
O1 O -0.2476006104207 0.09326741826530 -0.08825871085353
H4 H -0.3700140581565 0.07491584778867 -0.2877392755248
H5 H -0.2411819986006 0.1543418658802 -0.09974145952296
O2 O 0.3640442186871 -0.08646796631328 -0.1914236982698
H6 H 0.5037466394055 -0.08657965259312 -0.3371147303341
H7 H 0.1610413636984 -0.06805877543371 -0.3110300790771
O3 O 0.1717730982837 0.2372698675517 -0.4889902636906
H8 H 0.2545942305974 0.1872569769828 -0.5710279257590
H9 H 0.2847071165057 0.2412522461918 -0.2751138569682

#END
