
#######################################################################
#
#                 Cambridge Crystallographic Data Centre
#                                CCDC 
#
#######################################################################
#
# If this CIF has been generated from an entry in the Cambridge 
# Structural Database, then it will include bibliographic, chemical, 
# crystal, experimental, refinement or atomic coordinate data resulting 
# from the CCDC's data processing and validation procedures.
#
#######################################################################

data_PCOD8204698-hse3c
_symmetry_cell_setting           monoclinic
_symmetry_space_group_name_H-M   'P c'
_symmetry_Int_Tables_number      7
_space_group_name_Hall           'P -2yc'
loop_
_symmetry_equiv_pos_site_id
_symmetry_equiv_pos_as_xyz
1 x,y,z
2 x,-y,1/2+z
_cell_length_a                   4.45996727
_cell_length_b                   4.57768566
_cell_length_c                   22.93961654
_cell_angle_alpha                90.000000
_cell_angle_beta                 90.903692
_cell_angle_gamma                90.000000
_cell_volume                     468.284
loop_
_atom_site_label
_atom_site_type_symbol
_atom_site_fract_x
_atom_site_fract_y
_atom_site_fract_z
O1 O -0.005638256247092 -0.4433740812639 0.4136598417018
H10 H 0.1185868874101 -0.3298646381869 0.4412919230460
H11 H -0.1267979000112 -0.5698228528239 0.4387478198991
O2 O 0.006579899222547 0.4905898072907 0.08309266635710
H12 H 0.1272264439269 0.6218737829954 0.1080598994976
H13 H -0.1076321267361 0.3735746901487 0.1110944246441
O3 O -0.4937562478569 0.4717411474050 -0.2516179162398
H14 H -0.3759185297069 0.3392812726279 -0.2262931094537
H15 H -0.6087036979888 0.5907547349957 -0.2240300617194
O4 O 0.3475800157938 0.2186898882013 0.0007320229549403
H16 H 0.2229952172154 0.2695852929440 0.03410947716449
H17 H 0.4760167771618 0.3929631329092 -0.002741728688439
O5 O -0.3266779381078 -0.2881019593378 -0.004097368374057
H18 H -0.4423507606321 -0.1066729026630 -0.0001738837219255
H19 H -0.2073036963906 -0.3246485819410 0.03161466561676
O6 O 0.2660515731563 0.1529501434586 -0.3379189191816
H20 H 0.3208487297216 0.2728772127265 -0.3036687309491
H21 H 0.08900037827276 0.03473417295421 -0.3286263660038
O7 O -0.2364410373422 -0.1742964764456 -0.3309522891784
H22 H -0.2988998594222 -0.3048386792871 -0.2993335179855
H23 H -0.4160775020130 -0.05495870671386 -0.3393230251296
O8 O -0.2387766332961 0.1163735077523 -0.1721986520078
H24 H -0.4159087102505 -0.002472496217554 -0.1632456103533
H25 H -0.1849227470964 0.2352110605204 -0.1377759723317
O9 O 0.2585486046766 -0.2100911670349 -0.1666382784288
H26 H 0.1952272491879 -0.3392232070557 -0.1348964400810
H27 H 0.07939386735243 -0.08965013369718 -0.1748308710526

#END
