data_PCOD8204698-hse3c
_cell_length_a       4.45997
_cell_length_b       4.57769
_cell_length_c       22.9396
_cell_angle_alpha    90
_cell_angle_beta     90.9037
_cell_angle_gamma    90

_symmetry_space_group_name_H-M    "P 1"
_symmetry_int_tables_number       1

loop_
  _symmetry_equiv_pos_as_xyz
  'x, y, z'

loop_
  _atom_site_label
  _atom_site_occupancy
  _atom_site_fract_x
  _atom_site_fract_y
  _atom_site_fract_z
  _atom_site_thermal_displace_type
  _atom_site_B_iso_or_equiv
  _atom_site_type_symbol
  H1       1.0000 0.55765  0.89333  0.99983  Biso   1.000  H
  H2       1.0000 0.07939  0.91035  0.82517  Biso   1.000  H
  H3       1.0000 0.55765  0.10667  0.49983  Biso   1.000  H
  H4       1.0000 0.79270  0.67535  0.03161  Biso   1.000  H
  H5       1.0000 0.79270  0.32465  0.53161  Biso   1.000  H
  H6       1.0000 0.32085  0.27288  0.69633  Biso   1.000  H
  H7       1.0000 0.32085  0.72712  0.19633  Biso   1.000  H
  H8       1.0000 0.08900  0.03473  0.67137  Biso   1.000  H
  H9       1.0000 0.08900  0.96527  0.17137  Biso   1.000  H
  H10      1.0000 0.47602  0.60704  0.49726  Biso   1.000  H
  H11      1.0000 0.70110  0.69516  0.70067  Biso   1.000  H
  H12      1.0000 0.58392  0.94504  0.66068  Biso   1.000  H
  H13      1.0000 0.58392  0.05496  0.16068  Biso   1.000  H
  H14      1.0000 0.58409  0.99753  0.83675  Biso   1.000  H
  H15      1.0000 0.58409  0.00247  0.33675  Biso   1.000  H
  H16      1.0000 0.81508  0.23521  0.86222  Biso   1.000  H
  H17      1.0000 0.81508  0.76479  0.36222  Biso   1.000  H
  H18      1.0000 0.19523  0.66078  0.86510  Biso   1.000  H
  H19      1.0000 0.19523  0.33922  0.36510  Biso   1.000  H
  H20      1.0000 0.70110  0.30484  0.20067  Biso   1.000  H
  H21      1.0000 0.47602  0.39296  0.99726  Biso   1.000  H
  H22      1.0000 0.07939  0.08965  0.32517  Biso   1.000  H
  H23      1.0000 0.22300  0.26959  0.03411  Biso   1.000  H
  H24      1.0000 0.12723  0.37813  0.60806  Biso   1.000  H
  H25      1.0000 0.89237  0.37357  0.11109  Biso   1.000  H
  H26      1.0000 0.22300  0.73041  0.53411  Biso   1.000  H
  H27      1.0000 0.89237  0.62643  0.61109  Biso   1.000  H
  H28      1.0000 0.87320  0.56982  0.93875  Biso   1.000  H
  H29      1.0000 0.62408  0.33928  0.77371  Biso   1.000  H
  H30      1.0000 0.12723  0.62187  0.10806  Biso   1.000  H
  H31      1.0000 0.87320  0.43018  0.43875  Biso   1.000  H
  H32      1.0000 0.62408  0.66072  0.27371  Biso   1.000  H
  H33      1.0000 0.39130  0.59075  0.77597  Biso   1.000  H
  H34      1.0000 0.39130  0.40925  0.27597  Biso   1.000  H
  H35      1.0000 0.11859  0.67014  0.44129  Biso   1.000  H
  H36      1.0000 0.11859  0.32986  0.94129  Biso   1.000  H
  O1       1.0000 0.00658  0.49059  0.08309  Biso   1.000  O
  O2       1.0000 0.25855  0.78991  0.83336  Biso   1.000  O
  O3       1.0000 0.76122  0.88363  0.32780  Biso   1.000  O
  O4       1.0000 0.25855  0.21009  0.33336  Biso   1.000  O
  O5       1.0000 0.99436  0.44337  0.91366  Biso   1.000  O
  O6       1.0000 0.76122  0.11637  0.82780  Biso   1.000  O
  O7       1.0000 0.76356  0.17430  0.16905  Biso   1.000  O
  O8       1.0000 0.76356  0.82570  0.66905  Biso   1.000  O
  O9       1.0000 0.50624  0.47174  0.74838  Biso   1.000  O
  O10      1.0000 0.50624  0.52826  0.24838  Biso   1.000  O
  O11      1.0000 0.26605  0.84705  0.16208  Biso   1.000  O
  O12      1.0000 0.26605  0.15295  0.66208  Biso   1.000  O
  O13      1.0000 0.34758  0.21869  0.00073  Biso   1.000  O
  O14      1.0000 0.67332  0.28810  0.49590  Biso   1.000  O
  O15      1.0000 0.67332  0.71190  0.99590  Biso   1.000  O
  O16      1.0000 0.34758  0.78131  0.50073  Biso   1.000  O
  O17      1.0000 0.00658  0.50941  0.58309  Biso   1.000  O
  O18      1.0000 0.99436  0.55663  0.41366  Biso   1.000  O
