data_PCOD8045578-hse3c
_cell_length_a       8.4083
_cell_length_b       4.5399
_cell_length_c       6.9822
_cell_angle_alpha    90
_cell_angle_beta     124.007
_cell_angle_gamma    90

_symmetry_space_group_name_H-M    "P 1"
_symmetry_int_tables_number       1

loop_
  _symmetry_equiv_pos_as_xyz
  'x, y, z'

loop_
  _atom_site_label
  _atom_site_occupancy
  _atom_site_fract_x
  _atom_site_fract_y
  _atom_site_fract_z
  _atom_site_thermal_displace_type
  _atom_site_B_iso_or_equiv
  _atom_site_type_symbol
  H1       1.0000 0.36024  0.67463  0.77413  Biso   1.000  H
  H2       1.0000 0.87192  0.50000  0.55890  Biso   1.000  H
  H3       1.0000 0.12808  0.50000  0.44110  Biso   1.000  H
  H4       1.0000 0.58229  0.00000  0.77297  Biso   1.000  H
  H5       1.0000 0.41771  0.00000  0.22703  Biso   1.000  H
  H6       1.0000 0.08229  0.50000  0.77297  Biso   1.000  H
  H7       1.0000 0.91771  0.50000  0.22703  Biso   1.000  H
  H8       1.0000 0.62808  0.00000  0.44110  Biso   1.000  H
  H9       1.0000 0.63976  0.67463  0.22587  Biso   1.000  H
  H10      1.0000 0.37192  0.00000  0.55890  Biso   1.000  H
  H11      1.0000 0.36024  0.32537  0.77413  Biso   1.000  H
  H12      1.0000 0.86024  0.17463  0.77413  Biso   1.000  H
  H13      1.0000 0.13976  0.17463  0.22587  Biso   1.000  H
  H14      1.0000 0.13976  0.82537  0.22587  Biso   1.000  H
  H15      1.0000 0.86024  0.82537  0.77413  Biso   1.000  H
  H16      1.0000 0.63976  0.32537  0.22587  Biso   1.000  H
  O1       1.0000 0.05076  0.50000  0.27150  Biso   1.000  O
  O2       1.0000 0.94924  0.50000  0.72850  Biso   1.000  O
  O3       1.0000 0.55076  0.00000  0.27150  Biso   1.000  O
  O4       1.0000 0.44924  0.00000  0.72850  Biso   1.000  O
  O5       1.0000 0.71780  0.50000  0.25023  Biso   1.000  O
  O6       1.0000 0.28220  0.50000  0.74977  Biso   1.000  O
  O7       1.0000 0.21780  0.00000  0.25023  Biso   1.000  O
  O8       1.0000 0.78220  0.00000  0.74977  Biso   1.000  O
