data_115_2_114-hse3c
_cell_length_a       7.53713
_cell_length_b       7.53713
_cell_length_c       4.3635
_cell_angle_alpha    90
_cell_angle_beta     90
_cell_angle_gamma    90

_symmetry_space_group_name_H-M    "P 1"
_symmetry_int_tables_number       1

loop_
  _symmetry_equiv_pos_as_xyz
  'x, y, z'

loop_
  _atom_site_label
  _atom_site_occupancy
  _atom_site_fract_x
  _atom_site_fract_y
  _atom_site_fract_z
  _atom_site_thermal_displace_type
  _atom_site_B_iso_or_equiv
  _atom_site_type_symbol
  H1       1.0000 0.23575  0.76425  0.81744  Biso   1.000  H
  H2       1.0000 0.54416  0.30929  0.50000  Biso   1.000  H
  H3       1.0000 0.45584  0.69071  0.50000  Biso   1.000  H
  H4       1.0000 0.69071  0.45584  0.50000  Biso   1.000  H
  H5       1.0000 0.30929  0.54416  0.50000  Biso   1.000  H
  H6       1.0000 0.95584  0.80929  0.00000  Biso   1.000  H
  H7       1.0000 0.04416  0.19071  0.00000  Biso   1.000  H
  H8       1.0000 0.19071  0.04416  0.00000  Biso   1.000  H
  H9       1.0000 0.76425  0.23575  0.81744  Biso   1.000  H
  H10      1.0000 0.80929  0.95584  0.00000  Biso   1.000  H
  H11      1.0000 0.26425  0.26425  0.31744  Biso   1.000  H
  H12      1.0000 0.26425  0.26425  0.68256  Biso   1.000  H
  H13      1.0000 0.73575  0.73575  0.68256  Biso   1.000  H
  H14      1.0000 0.76425  0.23575  0.18256  Biso   1.000  H
  H15      1.0000 0.23575  0.76425  0.18256  Biso   1.000  H
  H16      1.0000 0.73575  0.73575  0.31744  Biso   1.000  H
  O1       1.0000 0.17427  0.17427  0.00000  Biso   1.000  O
  O2       1.0000 0.82573  0.82573  0.00000  Biso   1.000  O
  O3       1.0000 0.32573  0.67427  0.50000  Biso   1.000  O
  O4       1.0000 0.67427  0.32573  0.50000  Biso   1.000  O
  O5       1.0000 0.31904  0.31904  0.50000  Biso   1.000  O
  O6       1.0000 0.68096  0.68096  0.50000  Biso   1.000  O
  O7       1.0000 0.81904  0.18096  0.00000  Biso   1.000  O
  O8       1.0000 0.18096  0.81904  0.00000  Biso   1.000  O
