data_IWV-hse3c
_cell_length_a       12.1133
_cell_length_b       12.6656
_cell_length_c       13.8569
_cell_angle_alpha    77.3042
_cell_angle_beta     63.4086
_cell_angle_gamma    61.4293

_symmetry_space_group_name_H-M    "P 1"
_symmetry_int_tables_number       1

loop_
  _symmetry_equiv_pos_as_xyz
  'x, y, z'

loop_
  _atom_site_label
  _atom_site_occupancy
  _atom_site_fract_x
  _atom_site_fract_y
  _atom_site_fract_z
  _atom_site_thermal_displace_type
  _atom_site_B_iso_or_equiv
  _atom_site_type_symbol
  H1       1.0000 0.28448  0.37252  0.03124  Biso   1.000  H
  H2       1.0000 0.91008  0.61760  0.91343  Biso   1.000  H
  H3       1.0000 0.95001  0.38257  0.07562  Biso   1.000  H
  H4       1.0000 0.08383  0.38214  0.07791  Biso   1.000  H
  H5       1.0000 0.81947  0.37500  0.96058  Biso   1.000  H
  H6       1.0000 0.90935  0.32161  0.84479  Biso   1.000  H
  H7       1.0000 0.17581  0.53568  0.11955  Biso   1.000  H
  H8       1.0000 0.08701  0.67768  0.14135  Biso   1.000  H
  H9       1.0000 0.34707  0.45764  0.87160  Biso   1.000  H
  H10      1.0000 0.42258  0.31666  0.84905  Biso   1.000  H
  H11      1.0000 0.66181  0.62272  0.03097  Biso   1.000  H
  H12      1.0000 0.52331  0.61550  0.10009  Biso   1.000  H
  H13      1.0000 0.80098  0.53917  0.87276  Biso   1.000  H
  H14      1.0000 0.73529  0.68148  0.85076  Biso   1.000  H
  H15      1.0000 0.78659  0.92530  0.99755  Biso   1.000  H
  H16      1.0000 0.25767  0.31691  0.14695  Biso   1.000  H
  H17      1.0000 0.19784  0.62100  0.96192  Biso   1.000  H
  H18      1.0000 0.12856  0.61682  0.89286  Biso   1.000  H
  H19      1.0000 0.71974  0.45784  0.12035  Biso   1.000  H
  H20      1.0000 0.77278  0.31662  0.14380  Biso   1.000  H
  H21      1.0000 0.99311  0.53154  0.98122  Biso   1.000  H
  H22      1.0000 0.42420  0.84980  0.53567  Biso   1.000  H
  H23      1.0000 0.32508  0.61542  0.08023  Biso   1.000  H
  H24      1.0000 0.66609  0.38379  0.91436  Biso   1.000  H
  H25      1.0000 0.28476  0.92871  0.99942  Biso   1.000  H
  H26      1.0000 0.21404  0.07033  0.99631  Biso   1.000  H
  H27      1.0000 0.66616  0.99813  0.89979  Biso   1.000  H
  H28      1.0000 0.61468  0.92937  0.85725  Biso   1.000  H
  H29      1.0000 0.33422  0.00006  0.09347  Biso   1.000  H
  H30      1.0000 0.47632  0.00120  0.02507  Biso   1.000  H
  H31      1.0000 0.06635  0.99817  0.09562  Biso   1.000  H
  H32      1.0000 0.99158  0.99973  0.02850  Biso   1.000  H
  H33      1.0000 0.93197  0.99931  0.90257  Biso   1.000  H
  H34      1.0000 0.09583  0.93047  0.86176  Biso   1.000  H
  H35      1.0000 0.40324  0.73026  0.96287  Biso   1.000  H
  H36      1.0000 0.34152  0.80536  0.87652  Biso   1.000  H
  H37      1.0000 0.59707  0.26445  0.03879  Biso   1.000  H
  H38      1.0000 0.65779  0.19041  0.12512  Biso   1.000  H
  H39      1.0000 0.86655  0.72868  0.03383  Biso   1.000  H
  H40      1.0000 0.71755  0.80099  0.12269  Biso   1.000  H
  H41      1.0000 0.13757  0.26685  0.95363  Biso   1.000  H
  H42      1.0000 0.14963  0.19389  0.86765  Biso   1.000  H
  H43      1.0000 0.53055  0.38245  0.91736  Biso   1.000  H
  H44      1.0000 0.47676  0.53032  0.01257  Biso   1.000  H
  H45      1.0000 0.33991  0.95793  0.61353  Biso   1.000  H
  H46      1.0000 0.71524  0.06690  0.99797  Biso   1.000  H
  H47      1.0000 0.57793  0.13582  0.45947  Biso   1.000  H
  H48      1.0000 0.28441  0.13269  0.53319  Biso   1.000  H
  H49      1.0000 0.34710  0.12589  0.61235  Biso   1.000  H
  H50      1.0000 0.24045  0.73474  0.82640  Biso   1.000  H
  H51      1.0000 0.83496  0.12020  0.16409  Biso   1.000  H
  H52      1.0000 0.69771  0.17281  0.26803  Biso   1.000  H
  H53      1.0000 0.54263  0.80691  0.84410  Biso   1.000  H
  H54      1.0000 0.64707  0.81992  0.72854  Biso   1.000  H
  H55      1.0000 0.37326  0.12252  0.16499  Biso   1.000  H
  H56      1.0000 0.45395  0.19257  0.15627  Biso   1.000  H
  H57      1.0000 0.49969  0.87507  0.16131  Biso   1.000  H
  H58      1.0000 0.56632  0.73350  0.17062  Biso   1.000  H
  H59      1.0000 0.50199  0.12606  0.82830  Biso   1.000  H
  H60      1.0000 0.35113  0.19504  0.83714  Biso   1.000  H
  H61      1.0000 0.95735  0.86990  0.16486  Biso   1.000  H
  H62      1.0000 0.88590  0.80058  0.15391  Biso   1.000  H
  H63      1.0000 0.04096  0.12424  0.83135  Biso   1.000  H
  H64      1.0000 0.12688  0.17454  0.72502  Biso   1.000  H
  H65      1.0000 0.81074  0.83786  0.32365  Biso   1.000  H
  H66      1.0000 0.65515  0.86139  0.38264  Biso   1.000  H
  H67      1.0000 0.30060  0.81778  0.73255  Biso   1.000  H
  H68      1.0000 0.45889  0.12646  0.37915  Biso   1.000  H
  H69      1.0000 0.48261  0.15338  0.67074  Biso   1.000  H
  H70      1.0000 0.54615  0.03043  0.61467  Biso   1.000  H
  H71      1.0000 0.66213  0.02623  0.38286  Biso   1.000  H
  H72      1.0000 0.51829  0.83726  0.32420  Biso   1.000  H
  H73      1.0000 0.68360  0.85364  0.53313  Biso   1.000  H
  H74      1.0000 0.35981  0.15105  0.32400  Biso   1.000  H
  H75      1.0000 0.45287  0.95814  0.38376  Biso   1.000  H
  H76      1.0000 0.54239  0.85898  0.61490  Biso   1.000  H
  O1       1.0000 0.38983  0.80449  0.91838  Biso   1.000  O
  O2       1.0000 0.36338  0.19150  0.19535  Biso   1.000  O
  O3       1.0000 0.21292  0.38257  0.10438  Biso   1.000  O
  O4       1.0000 0.01366  0.00426  0.89642  Biso   1.000  O
  O5       1.0000 0.62081  0.86870  0.60918  Biso   1.000  O
  O6       1.0000 0.55950  0.80636  0.19196  Biso   1.000  O
  O7       1.0000 0.98185  0.99707  0.10352  Biso   1.000  O
  O8       1.0000 0.49583  0.11747  0.60791  Biso   1.000  O
  O9       1.0000 0.41226  0.99917  0.10032  Biso   1.000  O
  O10      1.0000 0.58668  0.00300  0.89236  Biso   1.000  O
  O11      1.0000 0.61052  0.11479  0.38478  Biso   1.000  O
  O12      1.0000 0.93658  0.80019  0.19366  Biso   1.000  O
  O13      1.0000 0.22422  0.00042  0.04587  Biso   1.000  O
  O14      1.0000 0.79942  0.37971  0.10013  Biso   1.000  O
  O15      1.0000 0.77513  0.99671  0.94965  Biso   1.000  O
  O16      1.0000 0.21393  0.61379  0.88690  Biso   1.000  O
  O17      1.0000 0.44229  0.19497  0.79771  Biso   1.000  O
  O18      1.0000 0.61149  0.18961  0.08214  Biso   1.000  O
  O19      1.0000 0.63376  0.80714  0.80469  Biso   1.000  O
  O20      1.0000 0.82185  0.38651  0.88754  Biso   1.000  O
  O21      1.0000 0.72667  0.87287  0.38872  Biso   1.000  O
  O22      1.0000 0.03667  0.38952  0.03297  Biso   1.000  O
  O23      1.0000 0.40581  0.37932  0.89218  Biso   1.000  O
  O24      1.0000 0.50350  0.87051  0.38891  Biso   1.000  O
  O25      1.0000 0.96894  0.61204  0.94727  Biso   1.000  O
  O26      1.0000 0.27341  0.11549  0.60851  Biso   1.000  O
  O27      1.0000 0.41842  0.61011  0.04676  Biso   1.000  O
  O28      1.0000 0.39216  0.86981  0.61071  Biso   1.000  O
  O29      1.0000 0.24925  0.81101  0.81016  Biso   1.000  O
  O30      1.0000 0.57396  0.38917  0.95973  Biso   1.000  O
  O31      1.0000 0.60244  0.61307  0.10571  Biso   1.000  O
  O32      1.0000 0.19701  0.19240  0.91068  Biso   1.000  O
  O33      1.0000 0.74544  0.19087  0.19220  Biso   1.000  O
  O34      1.0000 0.38011  0.11539  0.38823  Biso   1.000  O
  O35      1.0000 0.80811  0.80146  0.07920  Biso   1.000  O
  O36      1.0000 0.77976  0.61746  0.89445  Biso   1.000  O
  O37      1.0000 0.17600  0.61451  0.09725  Biso   1.000  O
  O38      1.0000 0.06151  0.19403  0.80040  Biso   1.000  O
