
#######################################################################
#
#                 Cambridge Crystallographic Data Centre
#                                CCDC 
#
#######################################################################
#
# If this CIF has been generated from an entry in the Cambridge 
# Structural Database, then it will include bibliographic, chemical, 
# crystal, experimental, refinement or atomic coordinate data resulting 
# from the CCDC's data processing and validation procedures.
#
#######################################################################

data_IWV-hse3c
_symmetry_cell_setting           triclinic
_symmetry_space_group_name_H-M   'P 1'
_symmetry_Int_Tables_number      1
_space_group_name_Hall           'P 1'
loop_
_symmetry_equiv_pos_site_id
_symmetry_equiv_pos_as_xyz
1 x,y,z
_cell_length_a                   12.11328942
_cell_length_b                   12.66558820
_cell_length_c                   13.85686213
_cell_angle_alpha                77.304177
_cell_angle_beta                 63.408637
_cell_angle_gamma                61.429256
_cell_volume                     1669.53
loop_
_atom_site_label
_atom_site_type_symbol
_atom_site_fract_x
_atom_site_fract_y
_atom_site_fract_z
O1 O 0.06150991746239 0.1940300965910 -0.1995968982533
H39 H 0.1268794369508 0.1745352922012 -0.2749758241899
H63 H 0.04095506761490 0.1242409112710 -0.1686495496613
O2 O -0.06341600617727 -0.1998075239876 0.1936605422221
H48 H -0.1141006352774 -0.1994224448502 0.1539081640400
H64 H -0.04264783438643 -0.1300974871381 0.1648602539472
O3 O 0.4422922466745 0.1949675536669 -0.2022873479125
H49 H 0.3511252685009 0.1950408313770 -0.1628552986719
H65 H 0.5019892405277 0.1260575937927 -0.1717026099297
O4 O -0.4405044969202 -0.1936417736583 0.1919612765838
H57 H -0.4336826897068 -0.2665007131424 0.1706195615623
H66 H -0.5003107423307 -0.1249272406714 0.1613054762740
O5 O 0.3633780143141 0.1915016295044 0.1953457424986
H51 H 0.4539468953374 0.1925720048926 0.1562663686818
H67 H 0.3732618690264 0.1225175347705 0.1649928866501
O6 O -0.3662374046826 -0.1928635514663 -0.1953091882825
H44 H -0.3529259889906 -0.1800802642623 -0.2714604053798
H52 H -0.4573680068314 -0.1930854395391 -0.1558996016233
O7 O -0.2545591145640 0.1908704507354 0.1921970439997
H45 H -0.3022914755042 0.1728065777770 0.2680255620193
H69 H -0.1650377811138 0.1201955588246 0.1640887519530
O8 O 0.2492547890705 -0.1889898417917 -0.1898430257557
H46 H 0.3005991836133 -0.1822240276315 -0.2674498979954
H62 H 0.2404546983881 -0.2652629670743 -0.1736034019915
O9 O 0.2734099262455 0.1154916325328 -0.3914878688272
H81 H 0.3471028402576 0.1258866030957 -0.3876462319882
H85 H 0.2844106211937 0.1326918956491 -0.4668082894260
O10 O -0.2733317954292 -0.1271348464686 0.3887177171286
H40 H -0.1892609274573 -0.1621385744986 0.3236498942630
H82 H -0.3448456307484 -0.1386054711221 0.3826398450869
O11 O 0.4958260127369 0.1174727928876 -0.3920907208080
H41 H 0.4826064447080 0.1533781133499 -0.3292563879204
H80 H 0.5461456402493 0.03042763006798 -0.3853273257116
O12 O -0.4965043852237 -0.1294944852549 0.3889113039191
H42 H -0.4817081098810 -0.1627375038368 0.3241981664932
H79 H -0.5471278792121 -0.04185886774624 0.3837624420637
O13 O 0.3801090277895 0.1153923544255 0.3882303197197
H43 H 0.3598115330885 0.1510541074726 0.3239956921918
H83 H 0.4588884162236 0.1264612735557 0.3791529498954
O14 O -0.3791942766303 -0.1312962257276 -0.3908190631008
H84 H -0.4576057009862 -0.1410189236374 -0.3850997636581
H86 H -0.3164010145659 -0.1463628527950 -0.4668723559379
O15 O -0.3894810734436 0.1147935749995 0.3847817921158
H78 H -0.3378687008900 0.02623402759534 0.3828554507217
H87 H -0.4220735716208 0.1358206777092 0.4594702874040
O16 O 0.3921563892607 -0.1301852309092 -0.3892933281306
H77 H 0.3399106823167 -0.04207325182536 -0.3864720136028
H88 H 0.4242005218209 -0.1501967042125 -0.4643332756966
O17 O -0.2005792018251 0.3797070437728 0.1001331688480
H61 H -0.2272155022508 0.3166150294890 0.1437973616123
H107 H -0.2802592341478 0.4578415123904 0.1203500417711
O18 O 0.2139286609002 -0.3862133578593 -0.1130989720102
H92 H 0.1285558697049 -0.3831762826082 -0.1071424817443
H103 H 0.1978376612331 -0.3790043394882 -0.03807755274105
O19 O 0.2129244920664 0.3825716519238 0.1043828520073
H59 H 0.2576711869588 0.3169102637620 0.1469454030167
H105 H 0.2844750750936 0.3725167176000 0.03123764984772
O20 O -0.2202431143925 -0.3825353905720 -0.1055517825741
H60 H -0.2647104159752 -0.3185247338247 -0.1492357353215
H110 H -0.1990221798522 -0.4608290066095 -0.1272444047208
O21 O -0.3975617673078 -0.3869257826511 0.1057137632822
H95 H -0.4766858439816 -0.3844956115963 0.1000868273808
H106 H -0.3381864989435 -0.3772802706698 0.03097119953213
O22 O 0.4058050107969 0.3793151737040 -0.1078202304704
H58 H 0.4225811431858 0.3166558480314 -0.1509524501478
H108 H 0.3470729898881 0.4576355238129 -0.1284016828689
O23 O 0.1760043977450 -0.3854917403564 0.09724725609109
H55 H 0.08701229177447 -0.3223158447094 0.1413526048592
H109 H 0.1758098630161 -0.4643155425159 0.1195472499548
O24 O -0.1781468216329 0.3865124847318 -0.1124588518490
H56 H -0.09064509645197 0.3216114855573 -0.1552076545604
H104 H -0.1805270978500 0.3750042900033 -0.03942257471707
O25 O 0.03666605266571 0.3895193576804 0.03296533656200
H89 H 0.08383050030720 0.3821436630963 0.07791460665277
H91 H -0.04999255067390 0.3825712680923 0.07561944931535
O26 O -0.03106097348058 -0.3879616033058 -0.05272517972468
H90 H -0.08991684399711 -0.3823970317968 -0.08657117906525
H101 H -0.006887828297975 -0.4684634966992 -0.01877525390114
O27 O 0.4184212275452 -0.3898887333823 0.04676164312440
H93 H 0.3250772819639 -0.3845759857310 0.08023168065768
H102 H 0.4767567734414 -0.4696840622125 0.01256556721223
O28 O -0.4260411892402 0.3891667870281 -0.04027388174993
H94 H -0.3339148701998 0.3837859486092 -0.08564491359852
H96 H -0.4694500618176 0.3824487400111 -0.08264249645266
O29 O 0.1970055057687 0.1923976737072 -0.08932258205106
H47 H 0.1496340980648 0.1938888818723 -0.1323467629654
H97 H 0.1375742445735 0.2668480575293 -0.04637301676955
O30 O -0.1918875939041 -0.1985389349306 0.07919968556462
H50 H -0.2824499232071 -0.1990096458292 0.1226882429285
H98 H -0.1334465942061 -0.2713225017530 0.03382630338389
O31 O -0.3885116618825 0.1896136438042 0.08213515799981
H53 H -0.3422073780001 0.1904118000567 0.1251163074115
H99 H -0.4029341352421 0.2644455002829 0.03879324619434
O32 O 0.3898253831346 -0.1955133043587 -0.08161733989618
H54 H 0.3415172458854 -0.1946375080478 -0.1234843515596
H100 H 0.4032438393800 -0.2697436847702 -0.03713292776880
O33 O 0.01366314934703 0.004260631073183 -0.1035833109107
H70 H 0.09582507146152 -0.06952951926540 -0.1382406815064
H74 H -0.06802608491541 -0.0006921350587275 -0.09742719963493
O34 O -0.01815223532959 -0.002928733084341 0.1035235009670
H71 H -0.008423574514436 -0.0002743765495370 0.02850353255234
H73 H 0.06635388289052 -0.001833835451446 0.09562209499937
O35 O 0.4122568361825 -0.0008255833298366 0.1003233234979
H72 H 0.4763247946554 0.001195692252527 0.02506736022616
H75 H 0.3342244765544 0.00006315232227220 0.09347050956837
O36 O -0.4133183180165 0.002996643717310 -0.1076432547416
H68 H -0.3853165737597 -0.07063221102848 -0.1427480849040
H76 H -0.3338390327107 -0.001873503741483 -0.1002132356152
O37 O 0.2242229012603 0.0004165848059403 0.04587217201145
H111 H 0.2140384124810 0.07032972089735 -0.003685234958647
H114 H 0.2847583443307 -0.07128699218698 -0.0005764455909416
O38 O -0.2248722884484 -0.003292108819785 -0.05035172221312
H112 H -0.2134123145319 -0.07469562088878 -0.002450030335658
H113 H -0.2847633040696 0.06690373856873 -0.002029456373029

#END
