
#######################################################################
#
#                 Cambridge Crystallographic Data Centre
#                                CCDC 
#
#######################################################################
#
# If this CIF has been generated from an entry in the Cambridge 
# Structural Database, then it will include bibliographic, chemical, 
# crystal, experimental, refinement or atomic coordinate data resulting 
# from the CCDC's data processing and validation procedures.
#
#######################################################################

data_VIII-hse3c
_symmetry_cell_setting           tetragonal
_symmetry_space_group_name_H-M   'I 41/a m d'
_symmetry_Int_Tables_number      141
_space_group_name_Hall           'I -4 -2 -1bw'
loop_
_symmetry_equiv_pos_site_id
_symmetry_equiv_pos_as_xyz
1 x,y,z
2 1/2-x,1/2-y,1/2+z
3 -y,1/2+x,1/4+z
4 1/2+y,-x,3/4+z
5 1/2-x,y,3/4-z
6 x,1/2-y,1/4-z
7 1/2+y,1/2+x,1/2-z
8 -y,-x,-z
9 -x,1/2-y,1/4-z
10 1/2+x,y,3/4-z
11 y,-x,-z
12 1/2-y,1/2+x,1/2-z
13 1/2+x,1/2-y,1/2+z
14 -x,y,z
15 1/2-y,-x,3/4+z
16 y,1/2+x,1/4+z
17 1/2+x,1/2+y,1/2+z
18 -x,-y,z
19 1/2-y,x,3/4+z
20 y,1/2-x,1/4+z
21 -x,1/2+y,1/4-z
22 1/2+x,-y,3/4-z
23 y,x,-z
24 1/2-y,1/2-x,1/2-z
25 1/2-x,-y,3/4-z
26 x,1/2+y,1/4-z
27 1/2+y,1/2-x,1/2-z
28 -y,x,-z
29 x,-y,z
30 1/2-x,1/2+y,1/2+z
31 -y,1/2-x,1/4+z
32 1/2+y,x,3/4+z
_cell_length_a                   4.91602741
_cell_length_b                   4.91602741
_cell_length_c                   7.28963886
_cell_angle_alpha                90.000000
_cell_angle_beta                 90.000000
_cell_angle_gamma                90.000000
_cell_volume                     176.171
loop_
_atom_site_label
_atom_site_type_symbol
_atom_site_fract_x
_atom_site_fract_y
_atom_site_fract_z
O1 O 0.00000000000000002389798821990 -0.2500000000000 -0.1330309892267
H2 H -0.1575365432984 -0.2500000000000 -0.05310498192545

#END
