data_VIII-hse3c
_cell_length_a       4.91603
_cell_length_b       4.91603
_cell_length_c       7.28964
_cell_angle_alpha    90
_cell_angle_beta     90
_cell_angle_gamma    90

_symmetry_space_group_name_H-M    "P 1"
_symmetry_int_tables_number       1

loop_
  _symmetry_equiv_pos_as_xyz
  'x, y, z'

loop_
  _atom_site_label
  _atom_site_occupancy
  _atom_site_fract_x
  _atom_site_fract_y
  _atom_site_fract_z
  _atom_site_thermal_displace_type
  _atom_site_B_iso_or_equiv
  _atom_site_type_symbol
  H1       1.0000 0.25000  0.15754  0.05310  Biso   1.000  H
  H2       1.0000 0.75000  0.15754  0.05310  Biso   1.000  H
  H3       1.0000 0.75000  0.34246  0.55310  Biso   1.000  H
  H4       1.0000 0.34246  0.75000  0.44690  Biso   1.000  H
  H5       1.0000 0.15754  0.75000  0.94690  Biso   1.000  H
  H6       1.0000 0.75000  0.15754  0.69690  Biso   1.000  H
  H7       1.0000 0.75000  0.34246  0.19690  Biso   1.000  H
  H8       1.0000 0.34246  0.25000  0.44690  Biso   1.000  H
  H9       1.0000 0.15754  0.25000  0.94690  Biso   1.000  H
  H10      1.0000 0.75000  0.84246  0.69690  Biso   1.000  H
  H11      1.0000 0.34246  0.75000  0.80310  Biso   1.000  H
  H12      1.0000 0.75000  0.65754  0.19690  Biso   1.000  H
  H13      1.0000 0.34246  0.25000  0.80310  Biso   1.000  H
  H14      1.0000 0.75000  0.84246  0.05310  Biso   1.000  H
  H15      1.0000 0.75000  0.65754  0.55310  Biso   1.000  H
  H16      1.0000 0.65754  0.25000  0.80310  Biso   1.000  H
  H17      1.0000 0.84246  0.25000  0.30310  Biso   1.000  H
  H18      1.0000 0.25000  0.65754  0.55310  Biso   1.000  H
  H19      1.0000 0.25000  0.84246  0.05310  Biso   1.000  H
  H20      1.0000 0.84246  0.25000  0.94690  Biso   1.000  H
  H21      1.0000 0.65754  0.25000  0.44690  Biso   1.000  H
  H22      1.0000 0.15754  0.25000  0.30310  Biso   1.000  H
  H23      1.0000 0.15754  0.75000  0.30310  Biso   1.000  H
  H24      1.0000 0.25000  0.84246  0.69690  Biso   1.000  H
  H25      1.0000 0.25000  0.34246  0.55310  Biso   1.000  H
  H26      1.0000 0.84246  0.75000  0.30310  Biso   1.000  H
  H27      1.0000 0.65754  0.75000  0.80310  Biso   1.000  H
  H28      1.0000 0.25000  0.15754  0.69690  Biso   1.000  H
  H29      1.0000 0.25000  0.34246  0.19690  Biso   1.000  H
  H30      1.0000 0.65754  0.75000  0.44690  Biso   1.000  H
  H31      1.0000 0.84246  0.75000  0.94690  Biso   1.000  H
  H32      1.0000 0.25000  0.65754  0.19690  Biso   1.000  H
  O1       1.0000 0.50000  0.75000  0.36697  Biso   1.000  O
  O2       1.0000 0.25000  0.50000  0.11697  Biso   1.000  O
  O3       1.0000 0.25000  0.00000  0.61697  Biso   1.000  O
  O4       1.0000 0.50000  0.75000  0.88303  Biso   1.000  O
  O5       1.0000 0.00000  0.75000  0.38303  Biso   1.000  O
  O6       1.0000 0.25000  0.50000  0.63303  Biso   1.000  O
  O7       1.0000 0.25000  0.00000  0.13303  Biso   1.000  O
  O8       1.0000 0.75000  0.50000  0.11697  Biso   1.000  O
  O9       1.0000 0.75000  0.50000  0.63303  Biso   1.000  O
  O10      1.0000 0.75000  0.00000  0.61697  Biso   1.000  O
  O11      1.0000 0.50000  0.25000  0.36697  Biso   1.000  O
  O12      1.0000 0.00000  0.25000  0.86697  Biso   1.000  O
  O13      1.0000 0.00000  0.25000  0.38303  Biso   1.000  O
  O14      1.0000 0.50000  0.25000  0.88303  Biso   1.000  O
  O15      1.0000 0.75000  0.00000  0.13303  Biso   1.000  O
  O16      1.0000 0.00000  0.75000  0.86697  Biso   1.000  O
