
#######################################################################
#
#                 Cambridge Crystallographic Data Centre
#                                CCDC 
#
#######################################################################
#
# If this CIF has been generated from an entry in the Cambridge 
# Structural Database, then it will include bibliographic, chemical, 
# crystal, experimental, refinement or atomic coordinate data resulting 
# from the CCDC's data processing and validation procedures.
#
#######################################################################

data_X-hse3c
_symmetry_cell_setting           cubic
_symmetry_space_group_name_H-M   'P n 3 m'
_symmetry_Int_Tables_number      224
_space_group_name_Hall           'P -4 2 3 -1n'
loop_
_symmetry_equiv_pos_site_id
_symmetry_equiv_pos_as_xyz
1 x,y,z
2 -x,-y,z
3 -x,y,-z
4 x,-y,-z
5 z,x,y
6 z,-x,-y
7 -z,-x,y
8 -z,x,-y
9 y,z,x
10 -y,z,-x
11 y,-z,-x
12 -y,-z,x
13 1/2+y,1/2+x,1/2-z
14 1/2-y,1/2-x,1/2-z
15 1/2+y,1/2-x,1/2+z
16 1/2-y,1/2+x,1/2+z
17 1/2+x,1/2+z,1/2-y
18 1/2-x,1/2+z,1/2+y
19 1/2-x,1/2-z,1/2-y
20 1/2+x,1/2-z,1/2+y
21 1/2+z,1/2+y,1/2-x
22 1/2+z,1/2-y,1/2+x
23 1/2-z,1/2+y,1/2+x
24 1/2-z,1/2-y,1/2-x
25 1/2-x,1/2-y,1/2-z
26 1/2+x,1/2+y,1/2-z
27 1/2+x,1/2-y,1/2+z
28 1/2-x,1/2+y,1/2+z
29 1/2-z,1/2-x,1/2-y
30 1/2-z,1/2+x,1/2+y
31 1/2+z,1/2+x,1/2-y
32 1/2+z,1/2-x,1/2+y
33 1/2-y,1/2-z,1/2-x
34 1/2+y,1/2-z,1/2+x
35 1/2-y,1/2+z,1/2+x
36 1/2+y,1/2+z,1/2-x
37 -y,-x,z
38 y,x,z
39 -y,x,-z
40 y,-x,-z
41 -x,-z,y
42 x,-z,-y
43 x,z,y
44 -x,z,-y
45 -z,-y,x
46 -z,y,-x
47 z,-y,-x
48 z,y,x
_cell_length_a                   2.93274512
_cell_length_b                   2.93274512
_cell_length_c                   2.93274512
_cell_angle_alpha                90.000000
_cell_angle_beta                 90.000000
_cell_angle_gamma                90.000000
_cell_volume                     25.2245
loop_
_atom_site_label
_atom_site_type_symbol
_atom_site_fract_x
_atom_site_fract_y
_atom_site_fract_z
H1 H 0.000000000000 0.000000000000 0.000000000000
O2 O 0.2500000000000 0.2500000000000 0.2500000000000

#END
