
#######################################################################
#
#                 Cambridge Crystallographic Data Centre
#                                CCDC 
#
#######################################################################
#
# If this CIF has been generated from an entry in the Cambridge 
# Structural Database, then it will include bibliographic, chemical, 
# crystal, experimental, refinement or atomic coordinate data resulting 
# from the CCDC's data processing and validation procedures.
#
#######################################################################

data_67_2_1444-hse3c
_symmetry_cell_setting           monoclinic
_symmetry_space_group_name_H-M   'P 21'
_symmetry_Int_Tables_number      4
_space_group_name_Hall           'P 2yb'
loop_
_symmetry_equiv_pos_site_id
_symmetry_equiv_pos_as_xyz
1 x,y,z
2 -x,1/2+y,-z
_cell_length_a                   2.90848007
_cell_length_b                   4.35016990
_cell_length_c                   3.96728473
_cell_angle_alpha                90.000000
_cell_angle_beta                 100.661546
_cell_angle_gamma                90.000000
_cell_volume                     49.3291
loop_
_atom_site_label
_atom_site_type_symbol
_atom_site_fract_x
_atom_site_fract_y
_atom_site_fract_z
O1 O 0.04219257005207 -0.2290025494919 0.2027504374623
H2 H 0.001292440817287 -0.4138167969165 0.05586714435387
H3 H -0.2324507876651 -0.2201306535916 0.3076627049653

#END
