data_XV-hse3c
_cell_length_a       5.8123
_cell_length_b       6.19076
_cell_length_c       6.22548
_cell_angle_alpha    89.0749
_cell_angle_beta     89.5974
_cell_angle_gamma    89.3333

_symmetry_space_group_name_H-M    "P 1"
_symmetry_int_tables_number       1

loop_
  _symmetry_equiv_pos_as_xyz
  'x, y, z'

loop_
  _atom_site_label
  _atom_site_occupancy
  _atom_site_fract_x
  _atom_site_fract_y
  _atom_site_fract_z
  _atom_site_thermal_displace_type
  _atom_site_B_iso_or_equiv
  _atom_site_type_symbol
  H1       1.0000 0.37325  0.24553  0.18181  Biso   1.000  H
  H2       1.0000 0.87429  0.17489  0.24394  Biso   1.000  H
  H3       1.0000 0.12571  0.82511  0.75606  Biso   1.000  H
  H4       1.0000 0.16067  0.61916  0.24955  Biso   1.000  H
  H5       1.0000 0.83933  0.38084  0.75045  Biso   1.000  H
  H6       1.0000 0.14200  0.86578  0.25356  Biso   1.000  H
  H7       1.0000 0.85800  0.13422  0.74644  Biso   1.000  H
  H8       1.0000 0.48694  0.75324  0.03830  Biso   1.000  H
  H9       1.0000 0.51306  0.24676  0.96170  Biso   1.000  H
  H10      1.0000 0.62675  0.75447  0.81819  Biso   1.000  H
  H11      1.0000 0.20097  0.03930  0.87166  Biso   1.000  H
  H12      1.0000 0.79903  0.96070  0.12834  Biso   1.000  H
  H13      1.0000 0.20800  0.47470  0.63133  Biso   1.000  H
  H14      1.0000 0.79359  0.54149  0.12398  Biso   1.000  H
  H15      1.0000 0.20641  0.45851  0.87602  Biso   1.000  H
  H16      1.0000 0.51669  0.25005  0.54480  Biso   1.000  H
  H17      1.0000 0.79200  0.52530  0.36867  Biso   1.000  H
  H18      1.0000 0.71882  0.86314  0.46107  Biso   1.000  H
  H19      1.0000 0.28118  0.13686  0.53893  Biso   1.000  H
  H20      1.0000 0.48331  0.74995  0.45520  Biso   1.000  H
  O1       1.0000 0.35950  0.24632  0.02507  Biso   1.000  O
  O2       1.0000 0.62936  0.74949  0.53184  Biso   1.000  O
  O3       1.0000 0.87850  0.01673  0.25268  Biso   1.000  O
  O4       1.0000 0.12150  0.98327  0.74732  Biso   1.000  O
  O5       1.0000 0.13408  0.53776  0.75658  Biso   1.000  O
  O6       1.0000 0.74456  0.25257  0.75071  Biso   1.000  O
  O7       1.0000 0.86592  0.46224  0.24342  Biso   1.000  O
  O8       1.0000 0.64050  0.75368  0.97493  Biso   1.000  O
  O9       1.0000 0.25544  0.74743  0.24929  Biso   1.000  O
  O10      1.0000 0.37064  0.25051  0.46816  Biso   1.000  O
