data_BSV-hse3c
_cell_length_a       16.2007
_cell_length_b       16.2007
_cell_length_c       16.2007
_cell_angle_alpha    90
_cell_angle_beta     90
_cell_angle_gamma    90

_symmetry_space_group_name_H-M    "P 1"
_symmetry_int_tables_number       1

loop_
  _symmetry_equiv_pos_as_xyz
  'x, y, z'

loop_
  _atom_site_label
  _atom_site_occupancy
  _atom_site_fract_x
  _atom_site_fract_y
  _atom_site_fract_z
  _atom_site_thermal_displace_type
  _atom_site_B_iso_or_equiv
  _atom_site_type_symbol
  H1       1.0000 0.29574  0.15313  0.42126  Biso   1.000  H
  H2       1.0000 0.57948  0.61479  0.97292  Biso   1.000  H
  H3       1.0000 0.92052  0.38521  0.47292  Biso   1.000  H
  H4       1.0000 0.42052  0.11479  0.52708  Biso   1.000  H
  H5       1.0000 0.07948  0.88521  0.02708  Biso   1.000  H
  H6       1.0000 0.79574  0.65313  0.92126  Biso   1.000  H
  H7       1.0000 0.29574  0.84687  0.07874  Biso   1.000  H
  H8       1.0000 0.02708  0.07948  0.88521  Biso   1.000  H
  H9       1.0000 0.20426  0.15313  0.57874  Biso   1.000  H
  H10      1.0000 0.07874  0.29574  0.84687  Biso   1.000  H
  H11      1.0000 0.92126  0.79574  0.65313  Biso   1.000  H
  H12      1.0000 0.42126  0.70426  0.34687  Biso   1.000  H
  H13      1.0000 0.57874  0.20426  0.15313  Biso   1.000  H
  H14      1.0000 0.15313  0.57874  0.20426  Biso   1.000  H
  H15      1.0000 0.34687  0.42126  0.70426  Biso   1.000  H
  H16      1.0000 0.70426  0.34687  0.42126  Biso   1.000  H
  H17      1.0000 0.65313  0.92126  0.79574  Biso   1.000  H
  H18      1.0000 0.52708  0.42052  0.11479  Biso   1.000  H
  H19      1.0000 0.97292  0.57948  0.61479  Biso   1.000  H
  H20      1.0000 0.27708  0.36479  0.82948  Biso   1.000  H
  H21      1.0000 0.77708  0.13521  0.17052  Biso   1.000  H
  H22      1.0000 0.32948  0.22292  0.63521  Biso   1.000  H
  H23      1.0000 0.67052  0.72292  0.86479  Biso   1.000  H
  H24      1.0000 0.17052  0.77708  0.13521  Biso   1.000  H
  H25      1.0000 0.82948  0.27708  0.36479  Biso   1.000  H
  H26      1.0000 0.47292  0.92052  0.38521  Biso   1.000  H
  H27      1.0000 0.36479  0.82948  0.27708  Biso   1.000  H
  H28      1.0000 0.86479  0.67052  0.72292  Biso   1.000  H
  H29      1.0000 0.63521  0.32948  0.22292  Biso   1.000  H
  H30      1.0000 0.61479  0.97292  0.57948  Biso   1.000  H
  H31      1.0000 0.38521  0.47292  0.92052  Biso   1.000  H
  H32      1.0000 0.11479  0.52708  0.42052  Biso   1.000  H
  H33      1.0000 0.88521  0.02708  0.07948  Biso   1.000  H
  H34      1.0000 0.13521  0.17052  0.77708  Biso   1.000  H
  H35      1.0000 0.22292  0.63521  0.32948  Biso   1.000  H
  H36      1.0000 0.84687  0.07874  0.29574  Biso   1.000  H
  H37      1.0000 0.09687  0.04574  0.67126  Biso   1.000  H
  H38      1.0000 0.84687  0.42126  0.79574  Biso   1.000  H
  H39      1.0000 0.65313  0.57874  0.29574  Biso   1.000  H
  H40      1.0000 0.34687  0.07874  0.20426  Biso   1.000  H
  H41      1.0000 0.15313  0.92126  0.70426  Biso   1.000  H
  H42      1.0000 0.09687  0.45426  0.17126  Biso   1.000  H
  H43      1.0000 0.90313  0.95426  0.32874  Biso   1.000  H
  H44      1.0000 0.42126  0.79574  0.84687  Biso   1.000  H
  H45      1.0000 0.59687  0.04574  0.82874  Biso   1.000  H
  H46      1.0000 0.45426  0.17126  0.09687  Biso   1.000  H
  H47      1.0000 0.95426  0.32874  0.90313  Biso   1.000  H
  H48      1.0000 0.04574  0.82874  0.59687  Biso   1.000  H
  H49      1.0000 0.54574  0.67126  0.40313  Biso   1.000  H
  H50      1.0000 0.17126  0.09687  0.45426  Biso   1.000  H
  H51      1.0000 0.32874  0.90313  0.95426  Biso   1.000  H
  H52      1.0000 0.40313  0.54574  0.67126  Biso   1.000  H
  H53      1.0000 0.90313  0.54574  0.82874  Biso   1.000  H
  H54      1.0000 0.57874  0.29574  0.65313  Biso   1.000  H
  H55      1.0000 0.92126  0.70426  0.15313  Biso   1.000  H
  H56      1.0000 0.40313  0.95426  0.17126  Biso   1.000  H
  H57      1.0000 0.59687  0.45426  0.32874  Biso   1.000  H
  H58      1.0000 0.54574  0.82874  0.90313  Biso   1.000  H
  H59      1.0000 0.04574  0.67126  0.09687  Biso   1.000  H
  H60      1.0000 0.95426  0.17126  0.40313  Biso   1.000  H
  H61      1.0000 0.45426  0.32874  0.59687  Biso   1.000  H
  H62      1.0000 0.07874  0.20426  0.34687  Biso   1.000  H
  H63      1.0000 0.82874  0.90313  0.54574  Biso   1.000  H
  H64      1.0000 0.17126  0.40313  0.95426  Biso   1.000  H
  H65      1.0000 0.32874  0.59687  0.45426  Biso   1.000  H
  H66      1.0000 0.20426  0.34687  0.07874  Biso   1.000  H
  H67      1.0000 0.70426  0.15313  0.92126  Biso   1.000  H
  H68      1.0000 0.79574  0.84687  0.42126  Biso   1.000  H
  H69      1.0000 0.29574  0.65313  0.57874  Biso   1.000  H
  H70      1.0000 0.67126  0.09687  0.04574  Biso   1.000  H
  H71      1.0000 0.82874  0.59687  0.04574  Biso   1.000  H
  H72      1.0000 0.72292  0.86479  0.67052  Biso   1.000  H
  H73      1.0000 0.57948  0.88521  0.47292  Biso   1.000  H
  H74      1.0000 0.92052  0.88521  0.52708  Biso   1.000  H
  H75      1.0000 0.57948  0.11479  0.02708  Biso   1.000  H
  H76      1.0000 0.07948  0.38521  0.97292  Biso   1.000  H
  H77      1.0000 0.42052  0.61479  0.47292  Biso   1.000  H
  H78      1.0000 0.22292  0.36479  0.17052  Biso   1.000  H
  H79      1.0000 0.72292  0.13521  0.82948  Biso   1.000  H
  H80      1.0000 0.47292  0.42052  0.61479  Biso   1.000  H
  H81      1.0000 0.77708  0.86479  0.32948  Biso   1.000  H
  H82      1.0000 0.82948  0.72292  0.13521  Biso   1.000  H
  H83      1.0000 0.17052  0.22292  0.36479  Biso   1.000  H
  H84      1.0000 0.67052  0.27708  0.63521  Biso   1.000  H
  H85      1.0000 0.32948  0.77708  0.86479  Biso   1.000  H
  H86      1.0000 0.86479  0.32948  0.77708  Biso   1.000  H
  H87      1.0000 0.63521  0.67052  0.27708  Biso   1.000  H
  H88      1.0000 0.27708  0.63521  0.67052  Biso   1.000  H
  H89      1.0000 0.36479  0.17052  0.22292  Biso   1.000  H
  H90      1.0000 0.97292  0.07948  0.38521  Biso   1.000  H
  H91      1.0000 0.52708  0.92052  0.88521  Biso   1.000  H
  H92      1.0000 0.22292  0.13521  0.67052  Biso   1.000  H
  H93      1.0000 0.72292  0.36479  0.32948  Biso   1.000  H
  H94      1.0000 0.17052  0.27708  0.86479  Biso   1.000  H
  H95      1.0000 0.82948  0.77708  0.63521  Biso   1.000  H
  H96      1.0000 0.32948  0.72292  0.36479  Biso   1.000  H
  H97      1.0000 0.67052  0.22292  0.13521  Biso   1.000  H
  H98      1.0000 0.02708  0.57948  0.11479  Biso   1.000  H
  H99      1.0000 0.13521  0.67052  0.22292  Biso   1.000  H
  H100     1.0000 0.63521  0.82948  0.77708  Biso   1.000  H
  H101     1.0000 0.86479  0.17052  0.27708  Biso   1.000  H
  H102     1.0000 0.88521  0.52708  0.92052  Biso   1.000  H
  H103     1.0000 0.11479  0.02708  0.57948  Biso   1.000  H
  H104     1.0000 0.38521  0.97292  0.07948  Biso   1.000  H
  H105     1.0000 0.61479  0.47292  0.42052  Biso   1.000  H
  H106     1.0000 0.36479  0.32948  0.72292  Biso   1.000  H
  H107     1.0000 0.92052  0.11479  0.97292  Biso   1.000  H
  H108     1.0000 0.13521  0.82948  0.72292  Biso   1.000  H
  H109     1.0000 0.88521  0.97292  0.42052  Biso   1.000  H
  H110     1.0000 0.63521  0.17052  0.72292  Biso   1.000  H
  H111     1.0000 0.86479  0.82948  0.22292  Biso   1.000  H
  H112     1.0000 0.13521  0.32948  0.27708  Biso   1.000  H
  H113     1.0000 0.36479  0.67052  0.77708  Biso   1.000  H
  H114     1.0000 0.38521  0.02708  0.42052  Biso   1.000  H
  H115     1.0000 0.61479  0.52708  0.07948  Biso   1.000  H
  H116     1.0000 0.17052  0.72292  0.63521  Biso   1.000  H
  H117     1.0000 0.88521  0.47292  0.57948  Biso   1.000  H
  H118     1.0000 0.02708  0.42052  0.38521  Biso   1.000  H
  H119     1.0000 0.52708  0.07948  0.61479  Biso   1.000  H
  H120     1.0000 0.47292  0.57948  0.88521  Biso   1.000  H
  H121     1.0000 0.97292  0.92052  0.11479  Biso   1.000  H
  H122     1.0000 0.42052  0.38521  0.02708  Biso   1.000  H
  H123     1.0000 0.07948  0.61479  0.52708  Biso   1.000  H
  H124     1.0000 0.11479  0.97292  0.92052  Biso   1.000  H
  H125     1.0000 0.11479  0.47292  0.07948  Biso   1.000  H
  H126     1.0000 0.82948  0.22292  0.86479  Biso   1.000  H
  H127     1.0000 0.67052  0.77708  0.36479  Biso   1.000  H
  H128     1.0000 0.61479  0.02708  0.92052  Biso   1.000  H
  H129     1.0000 0.38521  0.52708  0.57948  Biso   1.000  H
  H130     1.0000 0.47292  0.07948  0.11479  Biso   1.000  H
  H131     1.0000 0.97292  0.42052  0.88521  Biso   1.000  H
  H132     1.0000 0.02708  0.92052  0.61479  Biso   1.000  H
  H133     1.0000 0.52708  0.57948  0.38521  Biso   1.000  H
  H134     1.0000 0.32948  0.27708  0.13521  Biso   1.000  H
  H135     1.0000 0.07948  0.11479  0.47292  Biso   1.000  H
  H136     1.0000 0.92052  0.61479  0.02708  Biso   1.000  H
  H137     1.0000 0.57948  0.38521  0.52708  Biso   1.000  H
  H138     1.0000 0.27708  0.13521  0.32948  Biso   1.000  H
  H139     1.0000 0.77708  0.36479  0.67052  Biso   1.000  H
  H140     1.0000 0.72292  0.63521  0.17052  Biso   1.000  H
  H141     1.0000 0.22292  0.86479  0.82948  Biso   1.000  H
  H142     1.0000 0.42052  0.88521  0.97292  Biso   1.000  H
  H143     1.0000 0.67126  0.40313  0.54574  Biso   1.000  H
  H144     1.0000 0.77708  0.63521  0.82948  Biso   1.000  H
  H145     1.0000 0.79574  0.34687  0.57874  Biso   1.000  H
  H146     1.0000 0.79574  0.15313  0.07874  Biso   1.000  H
  H147     1.0000 0.42126  0.20426  0.65313  Biso   1.000  H
  H148     1.0000 0.57874  0.70426  0.84687  Biso   1.000  H
  H149     1.0000 0.07874  0.79574  0.15313  Biso   1.000  H
  H150     1.0000 0.92126  0.29574  0.34687  Biso   1.000  H
  H151     1.0000 0.34687  0.92126  0.29574  Biso   1.000  H
  H152     1.0000 0.15313  0.07874  0.79574  Biso   1.000  H
  H153     1.0000 0.84687  0.57874  0.70426  Biso   1.000  H
  H154     1.0000 0.27708  0.86479  0.17052  Biso   1.000  H
  H155     1.0000 0.59687  0.95426  0.67126  Biso   1.000  H
  H156     1.0000 0.40313  0.45426  0.82874  Biso   1.000  H
  H157     1.0000 0.09687  0.54574  0.32874  Biso   1.000  H
  H158     1.0000 0.90313  0.04574  0.17126  Biso   1.000  H
  H159     1.0000 0.95426  0.67126  0.59687  Biso   1.000  H
  H160     1.0000 0.45426  0.82874  0.40313  Biso   1.000  H
  H161     1.0000 0.54574  0.32874  0.09687  Biso   1.000  H
  H162     1.0000 0.04574  0.17126  0.90313  Biso   1.000  H
  H163     1.0000 0.67126  0.59687  0.95426  Biso   1.000  H
  H164     1.0000 0.82874  0.40313  0.45426  Biso   1.000  H
  H165     1.0000 0.32874  0.09687  0.54574  Biso   1.000  H
  H166     1.0000 0.17126  0.90313  0.04574  Biso   1.000  H
  H167     1.0000 0.29574  0.34687  0.92126  Biso   1.000  H
  H168     1.0000 0.20426  0.65313  0.42126  Biso   1.000  H
  H169     1.0000 0.65313  0.42126  0.20426  Biso   1.000  H
  H170     1.0000 0.82874  0.09687  0.95426  Biso   1.000  H
  H171     1.0000 0.70426  0.84687  0.57874  Biso   1.000  H
  H172     1.0000 0.70426  0.65313  0.07874  Biso   1.000  H
  H173     1.0000 0.20426  0.84687  0.92126  Biso   1.000  H
  H174     1.0000 0.57874  0.79574  0.34687  Biso   1.000  H
  H175     1.0000 0.42126  0.29574  0.15313  Biso   1.000  H
  H176     1.0000 0.92126  0.20426  0.84687  Biso   1.000  H
  H177     1.0000 0.65313  0.07874  0.70426  Biso   1.000  H
  H178     1.0000 0.84687  0.92126  0.20426  Biso   1.000  H
  H179     1.0000 0.15313  0.42126  0.29574  Biso   1.000  H
  H180     1.0000 0.34687  0.57874  0.79574  Biso   1.000  H
  H181     1.0000 0.07874  0.70426  0.65313  Biso   1.000  H
  H182     1.0000 0.59687  0.54574  0.17126  Biso   1.000  H
  H183     1.0000 0.40313  0.04574  0.32874  Biso   1.000  H
  H184     1.0000 0.17126  0.59687  0.54574  Biso   1.000  H
  H185     1.0000 0.32874  0.40313  0.04574  Biso   1.000  H
  H186     1.0000 0.95426  0.82874  0.09687  Biso   1.000  H
  H187     1.0000 0.45426  0.67126  0.90313  Biso   1.000  H
  H188     1.0000 0.67126  0.90313  0.45426  Biso   1.000  H
  H189     1.0000 0.04574  0.32874  0.40313  Biso   1.000  H
  H190     1.0000 0.09687  0.95426  0.82874  Biso   1.000  H
  H191     1.0000 0.90313  0.45426  0.67126  Biso   1.000  H
  H192     1.0000 0.54574  0.17126  0.59687  Biso   1.000  H
  O1       1.0000 0.90181  0.49900  0.63146  Biso   1.000  O
  O2       1.0000 0.63146  0.90181  0.49900  Biso   1.000  O
  O3       1.0000 0.13146  0.59819  0.50100  Biso   1.000  O
  O4       1.0000 0.36854  0.40181  0.00100  Biso   1.000  O
  O5       1.0000 0.99900  0.86854  0.09819  Biso   1.000  O
  O6       1.0000 0.49900  0.63146  0.90181  Biso   1.000  O
  O7       1.0000 0.50100  0.13146  0.59819  Biso   1.000  O
  O8       1.0000 0.00100  0.36854  0.40181  Biso   1.000  O
  O9       1.0000 0.09819  0.99900  0.86854  Biso   1.000  O
  O10      1.0000 0.59819  0.50100  0.13146  Biso   1.000  O
  O11      1.0000 0.74900  0.65181  0.11854  Biso   1.000  O
  O12      1.0000 0.34819  0.61854  0.75100  Biso   1.000  O
  O13      1.0000 0.15181  0.38146  0.25100  Biso   1.000  O
  O14      1.0000 0.84819  0.88146  0.24900  Biso   1.000  O
  O15      1.0000 0.65181  0.11854  0.74900  Biso   1.000  O
  O16      1.0000 0.11854  0.74900  0.65181  Biso   1.000  O
  O17      1.0000 0.88146  0.24900  0.84819  Biso   1.000  O
  O18      1.0000 0.38146  0.25100  0.15181  Biso   1.000  O
  O19      1.0000 0.61854  0.75100  0.34819  Biso   1.000  O
  O20      1.0000 0.24900  0.84819  0.88146  Biso   1.000  O
  O21      1.0000 0.40181  0.00100  0.36854  Biso   1.000  O
  O22      1.0000 0.86854  0.09819  0.99900  Biso   1.000  O
  O23      1.0000 0.36854  0.09819  0.50100  Biso   1.000  O
  O24      1.0000 0.24900  0.65181  0.38146  Biso   1.000  O
  O25      1.0000 0.75100  0.34819  0.61854  Biso   1.000  O
  O26      1.0000 0.86854  0.40181  0.49900  Biso   1.000  O
  O27      1.0000 0.63146  0.59819  0.99900  Biso   1.000  O
  O28      1.0000 0.00100  0.13146  0.90181  Biso   1.000  O
  O29      1.0000 0.50100  0.36854  0.09819  Biso   1.000  O
  O30      1.0000 0.49900  0.86854  0.40181  Biso   1.000  O
  O31      1.0000 0.99900  0.63146  0.59819  Biso   1.000  O
  O32      1.0000 0.90181  0.00100  0.13146  Biso   1.000  O
  O33      1.0000 0.09819  0.50100  0.36854  Biso   1.000  O
  O34      1.0000 0.40181  0.49900  0.86854  Biso   1.000  O
  O35      1.0000 0.59819  0.99900  0.63146  Biso   1.000  O
  O36      1.0000 0.65181  0.38146  0.24900  Biso   1.000  O
  O37      1.0000 0.84819  0.61854  0.74900  Biso   1.000  O
  O38      1.0000 0.15181  0.11854  0.75100  Biso   1.000  O
  O39      1.0000 0.34819  0.88146  0.25100  Biso   1.000  O
  O40      1.0000 0.88146  0.25100  0.34819  Biso   1.000  O
  O41      1.0000 0.11854  0.75100  0.15181  Biso   1.000  O
  O42      1.0000 0.61854  0.74900  0.84819  Biso   1.000  O
  O43      1.0000 0.38146  0.24900  0.65181  Biso   1.000  O
  O44      1.0000 0.75100  0.15181  0.11854  Biso   1.000  O
  O45      1.0000 0.25100  0.34819  0.88146  Biso   1.000  O
  O46      1.0000 0.74900  0.84819  0.61854  Biso   1.000  O
  O47      1.0000 0.25100  0.15181  0.38146  Biso   1.000  O
  O48      1.0000 0.24900  0.34819  0.11854  Biso   1.000  O
  O49      1.0000 0.86854  0.59819  0.00100  Biso   1.000  O
  O50      1.0000 0.49900  0.36854  0.59819  Biso   1.000  O
  O51      1.0000 0.99900  0.13146  0.40181  Biso   1.000  O
  O52      1.0000 0.00100  0.63146  0.09819  Biso   1.000  O
  O53      1.0000 0.50100  0.86854  0.90181  Biso   1.000  O
  O54      1.0000 0.59819  0.49900  0.36854  Biso   1.000  O
  O55      1.0000 0.40181  0.99900  0.13146  Biso   1.000  O
  O56      1.0000 0.09819  0.00100  0.63146  Biso   1.000  O
  O57      1.0000 0.90181  0.50100  0.86854  Biso   1.000  O
  O58      1.0000 0.84819  0.11854  0.25100  Biso   1.000  O
  O59      1.0000 0.86854  0.90181  0.50100  Biso   1.000  O
  O60      1.0000 0.65181  0.88146  0.75100  Biso   1.000  O
  O61      1.0000 0.15181  0.61854  0.24900  Biso   1.000  O
  O62      1.0000 0.61854  0.24900  0.15181  Biso   1.000  O
  O63      1.0000 0.38146  0.74900  0.34819  Biso   1.000  O
  O64      1.0000 0.88146  0.75100  0.65181  Biso   1.000  O
  O65      1.0000 0.11854  0.25100  0.84819  Biso   1.000  O
  O66      1.0000 0.74900  0.34819  0.38146  Biso   1.000  O
  O67      1.0000 0.24900  0.15181  0.61854  Biso   1.000  O
  O68      1.0000 0.25100  0.84819  0.11854  Biso   1.000  O
  O69      1.0000 0.75100  0.65181  0.88146  Biso   1.000  O
  O70      1.0000 0.34819  0.38146  0.74900  Biso   1.000  O
  O71      1.0000 0.63146  0.09819  0.00100  Biso   1.000  O
  O72      1.0000 0.13146  0.40181  0.99900  Biso   1.000  O
  O73      1.0000 0.36854  0.59819  0.49900  Biso   1.000  O
  O74      1.0000 0.36854  0.90181  0.99900  Biso   1.000  O
  O75      1.0000 0.13146  0.09819  0.49900  Biso   1.000  O
  O76      1.0000 0.50100  0.63146  0.40181  Biso   1.000  O
  O77      1.0000 0.00100  0.86854  0.59819  Biso   1.000  O
  O78      1.0000 0.99900  0.36854  0.90181  Biso   1.000  O
  O79      1.0000 0.49900  0.13146  0.09819  Biso   1.000  O
  O80      1.0000 0.40181  0.50100  0.63146  Biso   1.000  O
  O81      1.0000 0.59819  0.00100  0.86854  Biso   1.000  O
  O82      1.0000 0.90181  0.99900  0.36854  Biso   1.000  O
  O83      1.0000 0.09819  0.49900  0.13146  Biso   1.000  O
  O84      1.0000 0.15181  0.88146  0.74900  Biso   1.000  O
  O85      1.0000 0.34819  0.11854  0.24900  Biso   1.000  O
  O86      1.0000 0.65181  0.61854  0.25100  Biso   1.000  O
  O87      1.0000 0.84819  0.38146  0.75100  Biso   1.000  O
  O88      1.0000 0.38146  0.75100  0.84819  Biso   1.000  O
  O89      1.0000 0.61854  0.25100  0.65181  Biso   1.000  O
  O90      1.0000 0.11854  0.24900  0.34819  Biso   1.000  O
  O91      1.0000 0.88146  0.74900  0.15181  Biso   1.000  O
  O92      1.0000 0.25100  0.65181  0.61854  Biso   1.000  O
  O93      1.0000 0.75100  0.84819  0.38146  Biso   1.000  O
  O94      1.0000 0.74900  0.15181  0.88146  Biso   1.000  O
  O95      1.0000 0.63146  0.40181  0.50100  Biso   1.000  O
  O96      1.0000 0.13146  0.90181  0.00100  Biso   1.000  O
