
#######################################################################
#
#                 Cambridge Crystallographic Data Centre
#                                CCDC 
#
#######################################################################
#
# If this CIF has been generated from an entry in the Cambridge 
# Structural Database, then it will include bibliographic, chemical, 
# crystal, experimental, refinement or atomic coordinate data resulting 
# from the CCDC's data processing and validation procedures.
#
#######################################################################

data_BSV-hse3c
_symmetry_cell_setting           cubic
_symmetry_space_group_name_H-M   'I a 3 d'
_symmetry_Int_Tables_number      230
_space_group_name_Hall           '-I 4bd 2c 3'
loop_
_symmetry_equiv_pos_site_id
_symmetry_equiv_pos_as_xyz
1 x,y,z
2 1/2-x,-y,1/2+z
3 -x,1/2+y,1/2-z
4 1/2+x,1/2-y,-z
5 z,x,y
6 1/2+z,1/2-x,-y
7 1/2-z,-x,1/2+y
8 -z,1/2+x,1/2-y
9 y,z,x
10 -y,1/2+z,1/2-x
11 1/2+y,1/2-z,-x
12 1/2-y,-z,1/2+x
13 3/4+y,1/4+x,1/4-z
14 3/4-y,3/4-x,3/4-z
15 1/4+y,1/4-x,3/4+z
16 1/4-y,3/4+x,1/4+z
17 3/4+x,1/4+z,1/4-y
18 1/4-x,3/4+z,1/4+y
19 3/4-x,3/4-z,3/4-y
20 1/4+x,1/4-z,3/4+y
21 3/4+z,1/4+y,1/4-x
22 1/4+z,1/4-y,3/4+x
23 1/4-z,3/4+y,1/4+x
24 3/4-z,3/4-y,3/4-x
25 -x,-y,-z
26 1/2+x,y,1/2-z
27 x,1/2-y,1/2+z
28 1/2-x,1/2+y,z
29 -z,-x,-y
30 1/2-z,1/2+x,y
31 1/2+z,x,1/2-y
32 z,1/2-x,1/2+y
33 -y,-z,-x
34 y,1/2-z,1/2+x
35 1/2-y,1/2+z,x
36 1/2+y,z,1/2-x
37 1/4-y,3/4-x,3/4+z
38 1/4+y,1/4+x,1/4+z
39 3/4-y,3/4+x,1/4-z
40 3/4+y,1/4-x,3/4-z
41 1/4-x,3/4-z,3/4+y
42 3/4+x,1/4-z,3/4-y
43 1/4+x,1/4+z,1/4+y
44 3/4-x,3/4+z,1/4-y
45 1/4-z,3/4-y,3/4+x
46 3/4-z,3/4+y,1/4-x
47 3/4+z,1/4-y,3/4-x
48 1/4+z,1/4+y,1/4+x
49 1/2+x,1/2+y,1/2+z
50 -x,1/2-y,z
51 1/2-x,y,-z
52 x,-y,1/2-z
53 1/2+z,1/2+x,1/2+y
54 z,-x,1/2-y
55 -z,1/2-x,y
56 1/2-z,x,-y
57 1/2+y,1/2+z,1/2+x
58 1/2-y,z,-x
59 y,-z,1/2-x
60 -y,1/2-z,x
61 1/4+y,3/4+x,3/4-z
62 1/4-y,1/4-x,1/4-z
63 3/4+y,3/4-x,1/4+z
64 3/4-y,1/4+x,3/4+z
65 1/4+x,3/4+z,3/4-y
66 3/4-x,1/4+z,3/4+y
67 1/4-x,1/4-z,1/4-y
68 3/4+x,3/4-z,1/4+y
69 1/4+z,3/4+y,3/4-x
70 3/4+z,3/4-y,1/4+x
71 3/4-z,1/4+y,3/4+x
72 1/4-z,1/4-y,1/4-x
73 1/2-x,1/2-y,1/2-z
74 x,1/2+y,-z
75 1/2+x,-y,z
76 -x,y,1/2+z
77 1/2-z,1/2-x,1/2-y
78 -z,x,1/2+y
79 z,1/2+x,-y
80 1/2+z,-x,y
81 1/2-y,1/2-z,1/2-x
82 1/2+y,-z,x
83 -y,z,1/2+x
84 y,1/2+z,-x
85 3/4-y,1/4-x,1/4+z
86 3/4+y,3/4+x,3/4+z
87 1/4-y,1/4+x,3/4-z
88 1/4+y,3/4-x,1/4-z
89 3/4-x,1/4-z,1/4+y
90 1/4+x,3/4-z,1/4-y
91 3/4+x,3/4+z,3/4+y
92 1/4-x,1/4+z,3/4-y
93 3/4-z,1/4-y,1/4+x
94 1/4-z,1/4+y,3/4-x
95 1/4+z,3/4-y,1/4-x
96 3/4+z,3/4+y,3/4+x
_cell_length_a                   16.20074080
_cell_length_b                   16.20074080
_cell_length_c                   16.20074080
_cell_angle_alpha                90.000000
_cell_angle_beta                 90.000000
_cell_angle_gamma                90.000000
_cell_volume                     4252.11
loop_
_atom_site_label
_atom_site_type_symbol
_atom_site_fract_x
_atom_site_fract_y
_atom_site_fract_z
O1 O 0.1314606909097 -0.09818987885830 0.001003616772763
H2 H 0.1712561631633 -0.09686704765964 0.04573663406638
H3 H 0.07947537655401 -0.1147909814499 0.02708315263707

#END
