data_PCOD8172143-hse3c
_cell_length_a       11.7143
_cell_length_b       4.31744
_cell_length_c       5.16003
_cell_angle_alpha    90
_cell_angle_beta     90
_cell_angle_gamma    90

_symmetry_space_group_name_H-M    "P 1"
_symmetry_int_tables_number       1

loop_
  _symmetry_equiv_pos_as_xyz
  'x, y, z'

loop_
  _atom_site_label
  _atom_site_occupancy
  _atom_site_fract_x
  _atom_site_fract_y
  _atom_site_fract_z
  _atom_site_thermal_displace_type
  _atom_site_B_iso_or_equiv
  _atom_site_type_symbol
  H1       1.0000 0.86551  0.46633  0.23940  Biso   1.000  H
  H2       1.0000 0.90944  0.82988  0.90326  Biso   1.000  H
  H3       1.0000 0.09056  0.17012  0.90326  Biso   1.000  H
  H4       1.0000 0.35695  0.52825  0.65643  Biso   1.000  H
  H5       1.0000 0.64305  0.47175  0.65643  Biso   1.000  H
  H6       1.0000 0.85695  0.97175  0.15643  Biso   1.000  H
  H7       1.0000 0.14305  0.02825  0.15643  Biso   1.000  H
  H8       1.0000 0.63449  0.96633  0.73940  Biso   1.000  H
  H9       1.0000 0.36551  0.03367  0.73940  Biso   1.000  H
  H10      1.0000 0.13449  0.53367  0.23940  Biso   1.000  H
  H11      1.0000 0.59056  0.32988  0.40326  Biso   1.000  H
  H12      1.0000 0.72135  0.78748  0.92068  Biso   1.000  H
  H13      1.0000 0.40944  0.67012  0.40326  Biso   1.000  H
  H14      1.0000 0.22135  0.71252  0.42068  Biso   1.000  H
  H15      1.0000 0.77865  0.28748  0.42068  Biso   1.000  H
  H16      1.0000 0.45336  0.36948  0.06580  Biso   1.000  H
  H17      1.0000 0.54664  0.63052  0.06580  Biso   1.000  H
  H18      1.0000 0.95336  0.13052  0.56580  Biso   1.000  H
  H19      1.0000 0.04664  0.86948  0.56580  Biso   1.000  H
  H20      1.0000 0.27865  0.21252  0.92068  Biso   1.000  H
  O1       1.0000 0.00000  0.00000  0.68075  Biso   1.000  O
  O2       1.0000 0.85675  0.28003  0.34783  Biso   1.000  O
  O3       1.0000 0.35434  0.71331  0.54288  Biso   1.000  O
  O4       1.0000 0.85434  0.78669  0.04288  Biso   1.000  O
  O5       1.0000 0.14566  0.21331  0.04288  Biso   1.000  O
  O6       1.0000 0.14325  0.71997  0.34783  Biso   1.000  O
  O7       1.0000 0.35675  0.21997  0.84783  Biso   1.000  O
  O8       1.0000 0.64325  0.78003  0.84783  Biso   1.000  O
  O9       1.0000 0.64566  0.28669  0.54288  Biso   1.000  O
  O10      1.0000 0.50000  0.50000  0.18075  Biso   1.000  O
