data_152_2_118474-hse3c
_cell_length_a       10.7379
_cell_length_b       6.20035
_cell_length_c       6.4708
_cell_angle_alpha    90
_cell_angle_beta     91.9516
_cell_angle_gamma    90

_symmetry_space_group_name_H-M    "P 1"
_symmetry_int_tables_number       1

loop_
  _symmetry_equiv_pos_as_xyz
  'x, y, z'

loop_
  _atom_site_label
  _atom_site_occupancy
  _atom_site_fract_x
  _atom_site_fract_y
  _atom_site_fract_z
  _atom_site_thermal_displace_type
  _atom_site_B_iso_or_equiv
  _atom_site_type_symbol
  H1       1.0000 0.79111  0.79044  0.36124  Biso   1.000  H
  H2       1.0000 0.72882  0.53080  0.67138  Biso   1.000  H
  H3       1.0000 0.46114  0.23162  0.17728  Biso   1.000  H
  H4       1.0000 0.20889  0.79044  0.63876  Biso   1.000  H
  H5       1.0000 0.29111  0.29044  0.36124  Biso   1.000  H
  H6       1.0000 0.70889  0.29044  0.63876  Biso   1.000  H
  H7       1.0000 0.86148  0.12009  0.98650  Biso   1.000  H
  H8       1.0000 0.13852  0.12009  0.01350  Biso   1.000  H
  H9       1.0000 0.36148  0.62009  0.98650  Biso   1.000  H
  H10      1.0000 0.63852  0.62009  0.01350  Biso   1.000  H
  H11      1.0000 0.85504  0.33252  0.12001  Biso   1.000  H
  H12      1.0000 0.14496  0.33252  0.87999  Biso   1.000  H
  H13      1.0000 0.35504  0.83252  0.12001  Biso   1.000  H
  H14      1.0000 0.64496  0.83252  0.87999  Biso   1.000  H
  H15      1.0000 0.83492  0.68459  0.05736  Biso   1.000  H
  H16      1.0000 0.16508  0.68459  0.94264  Biso   1.000  H
  H17      1.0000 0.33492  0.18459  0.05736  Biso   1.000  H
  H18      1.0000 0.66508  0.18459  0.94264  Biso   1.000  H
  H19      1.0000 0.96114  0.73162  0.17728  Biso   1.000  H
  H20      1.0000 0.03886  0.73162  0.82272  Biso   1.000  H
  H21      1.0000 0.27118  0.53080  0.32862  Biso   1.000  H
  H22      1.0000 0.22882  0.03080  0.67138  Biso   1.000  H
  H23      1.0000 0.53886  0.23162  0.82272  Biso   1.000  H
  H24      1.0000 0.14361  0.93778  0.33166  Biso   1.000  H
  H25      1.0000 0.07383  0.37105  0.49376  Biso   1.000  H
  H26      1.0000 0.92617  0.37105  0.50624  Biso   1.000  H
  H27      1.0000 0.47163  0.57834  0.69579  Biso   1.000  H
  H28      1.0000 0.52837  0.57834  0.30421  Biso   1.000  H
  H29      1.0000 0.97163  0.07834  0.69579  Biso   1.000  H
  H30      1.0000 0.57383  0.87105  0.49376  Biso   1.000  H
  H31      1.0000 0.42617  0.87105  0.50624  Biso   1.000  H
  H32      1.0000 0.77118  0.03080  0.32862  Biso   1.000  H
  H33      1.0000 0.85639  0.93778  0.66834  Biso   1.000  H
  H34      1.0000 0.02837  0.07834  0.30421  Biso   1.000  H
  H35      1.0000 0.35639  0.43778  0.66834  Biso   1.000  H
  H36      1.0000 0.64361  0.43778  0.33166  Biso   1.000  H
  O1       1.0000 0.38913  0.13632  0.17210  Biso   1.000  O
  O2       1.0000 0.07617  0.96999  0.23124  Biso   1.000  O
  O3       1.0000 0.11087  0.63632  0.82790  Biso   1.000  O
  O4       1.0000 0.50000  0.78148  0.50000  Biso   1.000  O
  O5       1.0000 0.61087  0.13632  0.82790  Biso   1.000  O
  O6       1.0000 0.88913  0.63632  0.17210  Biso   1.000  O
  O7       1.0000 0.74535  0.41592  0.57335  Biso   1.000  O
  O8       1.0000 0.57617  0.46999  0.23124  Biso   1.000  O
  O9       1.0000 0.42383  0.46999  0.76876  Biso   1.000  O
  O10      1.0000 0.68514  0.69456  0.90745  Biso   1.000  O
  O11      1.0000 0.31486  0.69456  0.09255  Biso   1.000  O
  O12      1.0000 0.18514  0.19456  0.90745  Biso   1.000  O
  O13      1.0000 0.81486  0.19456  0.09255  Biso   1.000  O
  O14      1.0000 0.75465  0.91592  0.42665  Biso   1.000  O
  O15      1.0000 0.24535  0.91592  0.57335  Biso   1.000  O
  O16      1.0000 0.25465  0.41592  0.42665  Biso   1.000  O
  O17      1.0000 0.92383  0.96999  0.76876  Biso   1.000  O
  O18      1.0000 0.00000  0.28148  0.50000  Biso   1.000  O
