data_PCOD8036144-hse3c
_cell_length_a       6.55657
_cell_length_b       6.55829
_cell_length_c       7.72638
_cell_angle_alpha    89.5057
_cell_angle_beta     64.9974
_cell_angle_gamma    88.79

_symmetry_space_group_name_H-M    "P 1"
_symmetry_int_tables_number       1

loop_
  _symmetry_equiv_pos_as_xyz
  'x, y, z'

loop_
  _atom_site_label
  _atom_site_occupancy
  _atom_site_fract_x
  _atom_site_fract_y
  _atom_site_fract_z
  _atom_site_thermal_displace_type
  _atom_site_B_iso_or_equiv
  _atom_site_type_symbol
  H1       1.0000 0.72997  0.91520  0.80968  Biso   1.000  H
  H2       1.0000 0.72933  0.59222  0.30943  Biso   1.000  H
  H3       1.0000 0.27067  0.40778  0.69057  Biso   1.000  H
  H4       1.0000 0.47753  0.86403  0.67025  Biso   1.000  H
  H5       1.0000 0.52247  0.13597  0.32975  Biso   1.000  H
  H6       1.0000 0.69606  0.97831  0.54431  Biso   1.000  H
  H7       1.0000 0.30394  0.02169  0.45569  Biso   1.000  H
  H8       1.0000 0.30575  0.23154  0.92980  Biso   1.000  H
  H9       1.0000 0.69425  0.76846  0.07020  Biso   1.000  H
  H10      1.0000 0.52808  0.35461  0.83054  Biso   1.000  H
  H11      1.0000 0.47192  0.64539  0.16946  Biso   1.000  H
  H12      1.0000 0.24725  0.34912  0.50397  Biso   1.000  H
  H13      1.0000 0.27003  0.08480  0.19032  Biso   1.000  H
  H14      1.0000 0.79136  0.09437  0.90937  Biso   1.000  H
  H15      1.0000 0.75275  0.65088  0.49603  Biso   1.000  H
  H16      1.0000 0.21640  0.70795  0.60738  Biso   1.000  H
  H17      1.0000 0.26414  0.54928  0.02810  Biso   1.000  H
  H18      1.0000 0.78360  0.29205  0.39262  Biso   1.000  H
  H19      1.0000 0.07859  0.88832  0.74129  Biso   1.000  H
  H20      1.0000 0.92141  0.11168  0.25871  Biso   1.000  H
  H21      1.0000 0.73586  0.45072  0.97190  Biso   1.000  H
  H22      1.0000 0.20864  0.90563  0.09063  Biso   1.000  H
  H23      1.0000 0.08034  0.60815  0.23422  Biso   1.000  H
  H24      1.0000 0.91966  0.39185  0.76578  Biso   1.000  H
  O1       1.0000 0.80472  0.94517  0.89388  Biso   1.000  O
  O2       1.0000 0.77362  0.35217  0.86741  Biso   1.000  O
  O3       1.0000 0.80907  0.55428  0.38893  Biso   1.000  O
  O4       1.0000 0.19093  0.44572  0.61107  Biso   1.000  O
  O5       1.0000 0.63831  0.86970  0.64147  Biso   1.000  O
  O6       1.0000 0.36169  0.13030  0.35853  Biso   1.000  O
  O7       1.0000 0.22677  0.85115  0.63887  Biso   1.000  O
  O8       1.0000 0.36865  0.35497  0.85358  Biso   1.000  O
  O9       1.0000 0.63135  0.64503  0.14642  Biso   1.000  O
  O10      1.0000 0.19528  0.05483  0.10612  Biso   1.000  O
  O11      1.0000 0.77323  0.14885  0.36113  Biso   1.000  O
  O12      1.0000 0.22638  0.64783  0.13259  Biso   1.000  O
