
#######################################################################
#
#                 Cambridge Crystallographic Data Centre
#                                CCDC 
#
#######################################################################
#
# If this CIF has been generated from an entry in the Cambridge 
# Structural Database, then it will include bibliographic, chemical, 
# crystal, experimental, refinement or atomic coordinate data resulting 
# from the CCDC's data processing and validation procedures.
#
#######################################################################

data_PCOD8321499-hse3c
_symmetry_cell_setting           triclinic
_symmetry_space_group_name_H-M   'P 1'
_symmetry_Int_Tables_number      1
_space_group_name_Hall           'P 1'
loop_
_symmetry_equiv_pos_site_id
_symmetry_equiv_pos_as_xyz
1 x,y,z
_cell_length_a                   10.27267698
_cell_length_b                   10.31029890
_cell_length_c                   5.42439250
_cell_angle_alpha                89.552165
_cell_angle_beta                 89.635778
_cell_angle_gamma                60.931669
_cell_volume                     502.137
loop_
_atom_site_label
_atom_site_type_symbol
_atom_site_fract_x
_atom_site_fract_y
_atom_site_fract_z
O1 O 0.02436815625475 -0.2179760941995 -0.05019549340005
H19 H 0.09956381832345 -0.2923752675360 -0.1621619437376
H25 H 0.08132004369672 -0.1992216883546 0.07507244177851
O2 O 0.2094012433523 -0.01052527943179 -0.3762016699583
H20 H 0.2127582226921 0.06450649129757 -0.4875892549313
H29 H 0.3096823625743 -0.06389306254008 -0.3039835145767
O3 O -0.1802218736299 0.1799307839575 0.2904695174267
H24 H -0.09199732566356 0.1581091806401 0.1899573222727
H27 H -0.1566472591340 0.1008520924252 0.4131067783664
O4 O 0.2156495651124 -0.4079422446818 -0.3742031598387
H31 H 0.3188018925722 -0.4654130329980 -0.3110852103164
H37 H 0.2171571223396 -0.3397232197955 -0.5025062078261
O5 O 0.2168641482594 0.1825164701193 0.3071922885519
H35 H 0.3198291858647 0.1373072732939 0.2405467549134
H38 H 0.1522793800562 0.1787823431641 0.1758109716806
O6 O -0.3678035605819 0.1784259049219 -0.04371544617983
H21 H -0.3018441414936 0.1799791100456 0.08714509025841
H39 H -0.2992025685401 0.1111017293293 -0.1710710331647
O7 O -0.1114207077552 0.4487127044714 -0.2101480288867
H43 H -0.03753329480422 0.4529271268879 -0.3242246142014
H46 H -0.1304614205339 0.5234486987892 -0.08288715015429
O8 O -0.3168689409656 -0.1542836250479 0.4623588334393
H41 H -0.2501002227980 -0.2359875143935 0.3530761745578
H44 H -0.3907740007013 -0.07904070063259 0.3497217463532
O9 O 0.4976068616476 -0.3547630187950 0.1145194040684
H45 H 0.4957565476126 -0.4303043988789 0.005177388053772
H48 H 0.5722994931090 -0.4100821978665 0.2410439002886
O10 O -0.1224478118069 -0.3582009871856 0.1425884825735
H28 H -0.07539110738299 -0.3033193786134 0.07040601166670
H52 H -0.04663697956667 -0.4309483950520 0.2563409795092
O11 O 0.4899995120233 -0.1458054127922 -0.1875645176814
H42 H 0.5119386754165 -0.2329687729361 -0.08388805298934
H47 H 0.5696114085443 -0.1705440339880 -0.3098658481571
O12 O -0.3161543061859 0.4589200972680 0.4725893558830
H30 H -0.2626916238054 0.3578683101716 0.4048256332895
H40 H -0.2458767891674 0.4671608440190 0.5860443642727
O13 O 0.4910485345971 0.04208238204984 0.1403089690623
H33 H 0.5381660834904 0.09819452448441 0.07001766097691
H53 H 0.4910364488620 -0.02416481395346 0.008919140258851
O14 O 0.4906162551783 0.4560010946520 -0.2062802926241
H36 H 0.5360916337097 0.3520536345690 -0.1468124790039
H54 H 0.5593375362894 0.4569652061122 -0.3347144191736
O15 O 0.07375868574323 0.4570203615040 0.4639114833099
H32 H 0.1381768877792 0.3546955543049 0.4038721116584
H34 H 0.1367180930874 0.4988699736799 0.5229741079384
O16 O 0.03046524158236 0.1717179748569 -0.01641935443040
H26 H 0.08671818322317 0.1000709308840 -0.1473396049155
H49 H -0.02364805732725 0.2710978561847 -0.09346201433127
O17 O -0.1727544868484 -0.01347733756485 -0.3653727327991
H22 H -0.09334885774222 -0.08176215141465 -0.2534990629750
H50 H -0.2201757729403 -0.06970481095636 -0.4302561698548
O18 O 0.2160640123667 -0.2136365286776 0.3021172054635
H23 H 0.2053369937824 -0.1340398853242 0.4139332514480
H51 H 0.3176888802321 -0.2584848004733 0.2338499067879

#END
