data_PCOD8321499-hse3c
_cell_length_a       10.2727
_cell_length_b       10.3103
_cell_length_c       5.42439
_cell_angle_alpha    89.5522
_cell_angle_beta     89.6358
_cell_angle_gamma    60.9317

_symmetry_space_group_name_H-M    "P 1"
_symmetry_int_tables_number       1

loop_
  _symmetry_equiv_pos_as_xyz
  'x, y, z'

loop_
  _atom_site_label
  _atom_site_occupancy
  _atom_site_fract_x
  _atom_site_fract_y
  _atom_site_fract_z
  _atom_site_thermal_displace_type
  _atom_site_B_iso_or_equiv
  _atom_site_type_symbol
  H1       1.0000 0.57230  0.58992  0.24104  Biso   1.000  H
  H2       1.0000 0.49576  0.56970  0.00518  Biso   1.000  H
  H3       1.0000 0.20534  0.86596  0.41393  Biso   1.000  H
  H4       1.0000 0.92461  0.69668  0.07041  Biso   1.000  H
  H5       1.0000 0.95336  0.56905  0.25634  Biso   1.000  H
  H6       1.0000 0.51194  0.76703  0.91611  Biso   1.000  H
  H7       1.0000 0.56961  0.82946  0.69013  Biso   1.000  H
  H8       1.0000 0.73731  0.35787  0.40483  Biso   1.000  H
  H9       1.0000 0.75412  0.46716  0.58604  Biso   1.000  H
  H10      1.0000 0.60923  0.92096  0.34972  Biso   1.000  H
  H11      1.0000 0.53817  0.09819  0.07002  Biso   1.000  H
  H12      1.0000 0.53609  0.35205  0.85319  Biso   1.000  H
  H13      1.0000 0.55934  0.45697  0.66529  Biso   1.000  H
  H14      1.0000 0.13818  0.35470  0.40387  Biso   1.000  H
  H15      1.0000 0.13672  0.49887  0.52297  Biso   1.000  H
  H16      1.0000 0.08672  0.10007  0.85266  Biso   1.000  H
  H17      1.0000 0.97635  0.27110  0.90654  Biso   1.000  H
  H18      1.0000 0.90665  0.91824  0.74650  Biso   1.000  H
  H19      1.0000 0.77982  0.93030  0.56974  Biso   1.000  H
  H20      1.0000 0.49104  0.97584  0.00892  Biso   1.000  H
  H21      1.0000 0.74990  0.76401  0.35308  Biso   1.000  H
  H22      1.0000 0.31769  0.74152  0.23385  Biso   1.000  H
  H23      1.0000 0.86954  0.52345  0.91711  Biso   1.000  H
  H24      1.0000 0.09956  0.70762  0.83784  Biso   1.000  H
  H25      1.0000 0.08132  0.80078  0.07507  Biso   1.000  H
  H26      1.0000 0.21276  0.06451  0.51241  Biso   1.000  H
  H27      1.0000 0.30968  0.93611  0.69602  Biso   1.000  H
  H28      1.0000 0.90800  0.15811  0.18996  Biso   1.000  H
  H29      1.0000 0.84335  0.10085  0.41311  Biso   1.000  H
  H30      1.0000 0.21716  0.66028  0.49749  Biso   1.000  H
  H31      1.0000 0.31983  0.13731  0.24055  Biso   1.000  H
  H32      1.0000 0.31880  0.53459  0.68891  Biso   1.000  H
  H33      1.0000 0.96247  0.45293  0.67578  Biso   1.000  H
  H34      1.0000 0.69816  0.17998  0.08715  Biso   1.000  H
  H35      1.0000 0.70080  0.11110  0.82893  Biso   1.000  H
  H36      1.0000 0.15228  0.17878  0.17581  Biso   1.000  H
  O1       1.0000 0.49000  0.85419  0.81244  Biso   1.000  O
  O2       1.0000 0.21606  0.78636  0.30212  Biso   1.000  O
  O3       1.0000 0.49761  0.64524  0.11452  Biso   1.000  O
  O4       1.0000 0.82725  0.98652  0.63463  Biso   1.000  O
  O5       1.0000 0.20940  0.98947  0.62380  Biso   1.000  O
  O6       1.0000 0.88858  0.44871  0.78985  Biso   1.000  O
  O7       1.0000 0.03047  0.17172  0.98358  Biso   1.000  O
  O8       1.0000 0.07376  0.45702  0.46391  Biso   1.000  O
  O9       1.0000 0.87755  0.64180  0.14259  Biso   1.000  O
  O10      1.0000 0.49062  0.45600  0.79372  Biso   1.000  O
  O11      1.0000 0.21565  0.59206  0.62580  Biso   1.000  O
  O12      1.0000 0.68313  0.84572  0.46236  Biso   1.000  O
  O13      1.0000 0.49105  0.04208  0.14031  Biso   1.000  O
  O14      1.0000 0.63220  0.17843  0.95628  Biso   1.000  O
  O15      1.0000 0.21686  0.18252  0.30719  Biso   1.000  O
  O16      1.0000 0.68385  0.45892  0.47259  Biso   1.000  O
  O17      1.0000 0.81978  0.17993  0.29047  Biso   1.000  O
  O18      1.0000 0.02437  0.78202  0.94980  Biso   1.000  O
