data_i-hse3c
_cell_length_a       7.53743
_cell_length_b       7.53743
_cell_length_c       4.3629
_cell_angle_alpha    90
_cell_angle_beta     90
_cell_angle_gamma    90

_symmetry_space_group_name_H-M    "P 1"
_symmetry_int_tables_number       1

loop_
  _symmetry_equiv_pos_as_xyz
  'x, y, z'

loop_
  _atom_site_label
  _atom_site_occupancy
  _atom_site_fract_x
  _atom_site_fract_y
  _atom_site_fract_z
  _atom_site_thermal_displace_type
  _atom_site_B_iso_or_equiv
  _atom_site_type_symbol
  H1       1.0000 0.23570  0.76430  0.31740  Biso   1.000  H
  H2       1.0000 0.69073  0.45579  0.00000  Biso   1.000  H
  H3       1.0000 0.30927  0.54421  0.00000  Biso   1.000  H
  H4       1.0000 0.54421  0.30927  0.00000  Biso   1.000  H
  H5       1.0000 0.45579  0.69073  0.00000  Biso   1.000  H
  H6       1.0000 0.80927  0.95579  0.50000  Biso   1.000  H
  H7       1.0000 0.19073  0.04421  0.50000  Biso   1.000  H
  H8       1.0000 0.04421  0.19073  0.50000  Biso   1.000  H
  H9       1.0000 0.76430  0.23570  0.31740  Biso   1.000  H
  H10      1.0000 0.95579  0.80927  0.50000  Biso   1.000  H
  H11      1.0000 0.26430  0.26430  0.81740  Biso   1.000  H
  H12      1.0000 0.26430  0.26430  0.18260  Biso   1.000  H
  H13      1.0000 0.73570  0.73570  0.18260  Biso   1.000  H
  H14      1.0000 0.76430  0.23570  0.68260  Biso   1.000  H
  H15      1.0000 0.23570  0.76430  0.68260  Biso   1.000  H
  H16      1.0000 0.73570  0.73570  0.81740  Biso   1.000  H
  O1       1.0000 0.17431  0.17431  0.50000  Biso   1.000  O
  O2       1.0000 0.82569  0.82569  0.50000  Biso   1.000  O
  O3       1.0000 0.32569  0.67431  0.00000  Biso   1.000  O
  O4       1.0000 0.67431  0.32569  0.00000  Biso   1.000  O
  O5       1.0000 0.31909  0.31909  0.00000  Biso   1.000  O
  O6       1.0000 0.68091  0.68091  0.00000  Biso   1.000  O
  O7       1.0000 0.81909  0.18091  0.50000  Biso   1.000  O
  O8       1.0000 0.18091  0.81909  0.50000  Biso   1.000  O
