
#######################################################################
#
#                 Cambridge Crystallographic Data Centre
#                                CCDC 
#
#######################################################################
#
# If this CIF has been generated from an entry in the Cambridge 
# Structural Database, then it will include bibliographic, chemical, 
# crystal, experimental, refinement or atomic coordinate data resulting 
# from the CCDC's data processing and validation procedures.
#
#######################################################################

data_PCOD8301974-hse3c
_symmetry_cell_setting           triclinic
_symmetry_space_group_name_H-M   'P 1'
_symmetry_Int_Tables_number      1
_space_group_name_Hall           'P 1'
loop_
_symmetry_equiv_pos_site_id
_symmetry_equiv_pos_as_xyz
1 x,y,z
_cell_length_a                   7.72670335
_cell_length_b                   7.73281457
_cell_length_c                   6.72513204
_cell_angle_alpha                90.396547
_cell_angle_beta                 89.884392
_cell_angle_gamma                89.919959
_cell_volume                     401.81
loop_
_atom_site_label
_atom_site_type_symbol
_atom_site_fract_x
_atom_site_fract_y
_atom_site_fract_z
O1 O -0.3464901060830 0.3993902836223 0.4041714134556
H20 H -0.4563179045444 0.3751751605005 0.3349274257666
H21 H -0.2813589451247 0.4702756772913 0.3081976481020
O2 O -0.4132875489172 -0.3406327269068 -0.3422526255799
H17 H -0.3850746352689 -0.4468982258957 -0.4177841011116
H26 H -0.3036543914883 -0.2774451492310 -0.3249908067032
O3 O 0.3264817397157 -0.3991025381567 -0.09321195765059
H18 H 0.4338523123489 -0.3718204546665 -0.1659004492453
H27 H 0.2640107068905 -0.2889490763858 -0.07583410530620
O4 O 0.3867807220408 0.3444687970076 0.1603492476188
H19 H 0.3577049513248 0.4500381432593 0.08628687632686
H28 H 0.2776819382905 0.2814110580474 0.1801435452019
O5 O 0.3902217000675 -0.1676587243831 0.3890680250944
H22 H 0.4601565161796 -0.2327603762969 0.4856123808123
H37 H 0.3638934468929 -0.05839897747944 0.4591446268538
O6 O 0.1558467824564 0.4022087586067 -0.3631764878179
H23 H 0.2195359903472 0.4733811741213 -0.2653499909199
H38 H 0.04681232451598 0.3743906031654 -0.2940476011338
O7 O -0.4129585104957 0.1687457098909 -0.1075346023841
H24 H -0.4834157988341 0.2348777509039 -0.01108256831802
H39 H -0.3877037902328 0.05951373392157 -0.03854034455653
O8 O -0.1767333693086 -0.3981498991666 0.1390099534403
H32 H -0.1508654560013 -0.4788033106679 0.02895641230907
H40 H -0.06732383423330 -0.3746977877488 0.2092375559210
O9 O 0.3316105197092 0.09955403467285 -0.3648518622084
H31 H 0.4362312819348 0.1284309829120 -0.2876914202110
H34 H 0.2677984582465 0.2087877687188 -0.3824496395127
O10 O -0.1066572525578 0.3401358766774 -0.1146896390329
H35 H -0.2169131222160 0.2781400235170 -0.1319167638824
H42 H -0.03954244794397 0.2740038726861 -0.01617981452480
O11 O -0.3540020392646 -0.09967993092293 0.1311230410457
H29 H -0.4583563740659 -0.1292332902234 0.2083836148433
H36 H -0.2893539482415 -0.2084893573563 0.1117467086146
O12 O 0.08653393452217 -0.3412497723984 0.3840119343542
H30 H 0.1154496049317 -0.4463497118438 0.4594709000807
H33 H 0.1959634737840 -0.2776967418575 0.3667946111318
O13 O -0.1768555280842 0.09255994945461 0.4015766925563
H25 H -0.2395681748444 0.2024201834867 0.4215785017719
H43 H -0.2441464801385 0.02560800730706 0.3032690623341
O14 O -0.1103270431585 -0.1652410154340 -0.3457443008810
H44 H -0.04004645411101 -0.2313843313663 -0.4424569919955
H46 H -0.1391720889423 -0.05814280908726 -0.4172351988956
O15 O 0.1530497698335 -0.09378425795238 -0.09782943301032
H41 H 0.2202732185953 -0.02514135534770 -0.1939013306912
H47 H 0.04572307117511 -0.1217272391302 -0.1704028413971
O16 O 0.08622683000269 0.1675807154612 0.1537213769516
H45 H 0.004008729996880 0.1394238481006 0.2607762140594
H48 H 0.1108772202988 0.05982494657320 0.07950710832314

#END
