data_PCOD8301974-hse3c
_cell_length_a       7.7267
_cell_length_b       7.73281
_cell_length_c       6.72513
_cell_angle_alpha    90.3965
_cell_angle_beta     89.8844
_cell_angle_gamma    89.92

_symmetry_space_group_name_H-M    "P 1"
_symmetry_int_tables_number       1

loop_
  _symmetry_equiv_pos_as_xyz
  'x, y, z'

loop_
  _atom_site_label
  _atom_site_occupancy
  _atom_site_fract_x
  _atom_site_fract_y
  _atom_site_fract_z
  _atom_site_thermal_displace_type
  _atom_site_B_iso_or_equiv
  _atom_site_type_symbol
  H1       1.0000 0.93268  0.62530  0.20924  Biso   1.000  H
  H2       1.0000 0.84913  0.52120  0.02896  Biso   1.000  H
  H3       1.0000 0.00401  0.13942  0.26078  Biso   1.000  H
  H4       1.0000 0.43623  0.12843  0.71231  Biso   1.000  H
  H5       1.0000 0.26780  0.20879  0.61755  Biso   1.000  H
  H6       1.0000 0.78309  0.27814  0.86808  Biso   1.000  H
  H7       1.0000 0.96046  0.27400  0.98382  Biso   1.000  H
  H8       1.0000 0.54164  0.87077  0.20838  Biso   1.000  H
  H9       1.0000 0.61230  0.05951  0.96146  Biso   1.000  H
  H10      1.0000 0.71065  0.79151  0.11175  Biso   1.000  H
  H11      1.0000 0.19596  0.72230  0.36679  Biso   1.000  H
  H12      1.0000 0.76043  0.20242  0.42158  Biso   1.000  H
  H13      1.0000 0.75585  0.02561  0.30327  Biso   1.000  H
  H14      1.0000 0.95995  0.76862  0.55754  Biso   1.000  H
  H15      1.0000 0.86083  0.94186  0.58276  Biso   1.000  H
  H16      1.0000 0.22027  0.97486  0.80610  Biso   1.000  H
  H17      1.0000 0.04572  0.87827  0.82960  Biso   1.000  H
  H18      1.0000 0.11545  0.55365  0.45947  Biso   1.000  H
  H19      1.0000 0.51658  0.23488  0.98892  Biso   1.000  H
  H20      1.0000 0.11088  0.05982  0.07951  Biso   1.000  H
  H21      1.0000 0.04681  0.37439  0.70595  Biso   1.000  H
  H22      1.0000 0.26401  0.71105  0.92417  Biso   1.000  H
  H23      1.0000 0.21954  0.47338  0.73465  Biso   1.000  H
  H24      1.0000 0.54368  0.37518  0.33493  Biso   1.000  H
  H25      1.0000 0.71864  0.47028  0.30820  Biso   1.000  H
  H26      1.0000 0.36389  0.94160  0.45914  Biso   1.000  H
  H27      1.0000 0.46016  0.76724  0.48561  Biso   1.000  H
  H28      1.0000 0.69635  0.72255  0.67501  Biso   1.000  H
  H29      1.0000 0.43385  0.62818  0.83410  Biso   1.000  H
  H30      1.0000 0.27768  0.28141  0.18014  Biso   1.000  H
  H31      1.0000 0.61493  0.55310  0.58222  Biso   1.000  H
  H32      1.0000 0.35770  0.45004  0.08629  Biso   1.000  H
  O1       1.0000 0.58671  0.65937  0.65775  Biso   1.000  O
  O2       1.0000 0.15305  0.90622  0.90217  Biso   1.000  O
  O3       1.0000 0.08623  0.16758  0.15372  Biso   1.000  O
  O4       1.0000 0.88967  0.83476  0.65426  Biso   1.000  O
  O5       1.0000 0.32648  0.60090  0.90679  Biso   1.000  O
  O6       1.0000 0.08653  0.65875  0.38401  Biso   1.000  O
  O7       1.0000 0.58704  0.16875  0.89247  Biso   1.000  O
  O8       1.0000 0.38678  0.34447  0.16035  Biso   1.000  O
  O9       1.0000 0.64600  0.90032  0.13112  Biso   1.000  O
  O10      1.0000 0.39022  0.83234  0.38907  Biso   1.000  O
  O11      1.0000 0.89334  0.34014  0.88531  Biso   1.000  O
  O12      1.0000 0.33161  0.09955  0.63515  Biso   1.000  O
  O13      1.0000 0.15585  0.40221  0.63682  Biso   1.000  O
  O14      1.0000 0.82327  0.60185  0.13901  Biso   1.000  O
  O15      1.0000 0.82314  0.09256  0.40158  Biso   1.000  O
  O16      1.0000 0.65351  0.39939  0.40417  Biso   1.000  O
