data_12_2_32449-hse3c
_cell_length_a       7.93021
_cell_length_b       7.45614
_cell_length_c       6.20075
_cell_angle_alpha    90
_cell_angle_beta     125.735
_cell_angle_gamma    90

_symmetry_space_group_name_H-M    "P 1"
_symmetry_int_tables_number       1

loop_
  _symmetry_equiv_pos_as_xyz
  'x, y, z'

loop_
  _atom_site_label
  _atom_site_occupancy
  _atom_site_fract_x
  _atom_site_fract_y
  _atom_site_fract_z
  _atom_site_thermal_displace_type
  _atom_site_B_iso_or_equiv
  _atom_site_type_symbol
  H1       1.0000 0.37254  0.15109  0.10276  Biso   1.000  H
  H2       1.0000 0.24033  0.90051  0.19048  Biso   1.000  H
  H3       1.0000 0.24033  0.09949  0.69048  Biso   1.000  H
  H4       1.0000 0.68738  0.33033  0.91974  Biso   1.000  H
  H5       1.0000 0.68738  0.66967  0.41974  Biso   1.000  H
  H6       1.0000 0.18738  0.83033  0.91974  Biso   1.000  H
  H7       1.0000 0.18738  0.16967  0.41974  Biso   1.000  H
  H8       1.0000 0.01077  0.71592  0.01676  Biso   1.000  H
  H9       1.0000 0.01077  0.28408  0.51676  Biso   1.000  H
  H10      1.0000 0.51077  0.21592  0.01676  Biso   1.000  H
  H11      1.0000 0.51077  0.78408  0.51676  Biso   1.000  H
  H12      1.0000 0.87254  0.65109  0.10276  Biso   1.000  H
  H13      1.0000 0.87254  0.34891  0.60276  Biso   1.000  H
  H14      1.0000 0.74033  0.59949  0.69048  Biso   1.000  H
  H15      1.0000 0.37254  0.84891  0.60276  Biso   1.000  H
  H16      1.0000 0.74033  0.40051  0.19048  Biso   1.000  H
  H17      1.0000 0.38990  0.41715  0.35562  Biso   1.000  H
  H18      1.0000 0.38990  0.58285  0.85562  Biso   1.000  H
  H19      1.0000 0.88990  0.91715  0.35562  Biso   1.000  H
  H20      1.0000 0.88990  0.08285  0.85562  Biso   1.000  H
  H21      1.0000 0.15109  0.42377  0.16961  Biso   1.000  H
  H22      1.0000 0.65109  0.07623  0.66961  Biso   1.000  H
  H23      1.0000 0.65109  0.92377  0.16961  Biso   1.000  H
  H24      1.0000 0.15109  0.57623  0.66961  Biso   1.000  H
  O1       1.0000 0.93804  0.39137  0.52070  Biso   1.000  O
  O2       1.0000 0.76807  0.84122  0.26074  Biso   1.000  O
  O3       1.0000 0.26807  0.65878  0.76074  Biso   1.000  O
  O4       1.0000 0.26807  0.34122  0.26074  Biso   1.000  O
  O5       1.0000 0.12528  0.88509  0.00078  Biso   1.000  O
  O6       1.0000 0.62528  0.61491  0.50078  Biso   1.000  O
  O7       1.0000 0.93804  0.60863  0.02070  Biso   1.000  O
  O8       1.0000 0.12528  0.11491  0.50078  Biso   1.000  O
  O9       1.0000 0.43804  0.89137  0.52070  Biso   1.000  O
  O10      1.0000 0.43804  0.10863  0.02070  Biso   1.000  O
  O11      1.0000 0.62528  0.38509  0.00078  Biso   1.000  O
  O12      1.0000 0.76807  0.15878  0.76074  Biso   1.000  O
