data_14_2_48453-hse3c
_cell_length_a       6.99718
_cell_length_b       6.99968
_cell_length_c       4.45731
_cell_angle_alpha    90
_cell_angle_beta     90
_cell_angle_gamma    90

_symmetry_space_group_name_H-M    "P 1"
_symmetry_int_tables_number       1

loop_
  _symmetry_equiv_pos_as_xyz
  'x, y, z'

loop_
  _atom_site_label
  _atom_site_occupancy
  _atom_site_fract_x
  _atom_site_fract_y
  _atom_site_fract_z
  _atom_site_thermal_displace_type
  _atom_site_B_iso_or_equiv
  _atom_site_type_symbol
  H1       1.0000 0.35456  0.82810  0.32063  Biso   1.000  H
  H2       1.0000 0.12534  0.83244  0.00000  Biso   1.000  H
  H3       1.0000 0.87466  0.16756  0.00000  Biso   1.000  H
  H4       1.0000 0.29195  0.53925  0.50000  Biso   1.000  H
  H5       1.0000 0.70805  0.46075  0.50000  Biso   1.000  H
  H6       1.0000 0.20805  0.03925  0.00000  Biso   1.000  H
  H7       1.0000 0.79195  0.96075  0.00000  Biso   1.000  H
  H8       1.0000 0.62534  0.66756  0.50000  Biso   1.000  H
  H9       1.0000 0.64544  0.17190  0.32063  Biso   1.000  H
  H10      1.0000 0.37466  0.33244  0.50000  Biso   1.000  H
  H11      1.0000 0.85456  0.67190  0.17937  Biso   1.000  H
  H12      1.0000 0.64544  0.17190  0.67937  Biso   1.000  H
  H13      1.0000 0.35456  0.82810  0.67937  Biso   1.000  H
  H14      1.0000 0.85456  0.67190  0.82063  Biso   1.000  H
  H15      1.0000 0.14544  0.32810  0.82063  Biso   1.000  H
  H16      1.0000 0.14544  0.32810  0.17937  Biso   1.000  H
  O1       1.0000 0.75296  0.09611  0.00000  Biso   1.000  O
  O2       1.0000 0.24704  0.90389  0.00000  Biso   1.000  O
  O3       1.0000 0.74704  0.59611  0.50000  Biso   1.000  O
  O4       1.0000 0.25296  0.40389  0.50000  Biso   1.000  O
  O5       1.0000 0.59808  0.23948  0.50000  Biso   1.000  O
  O6       1.0000 0.40192  0.76052  0.50000  Biso   1.000  O
  O7       1.0000 0.90192  0.73948  0.00000  Biso   1.000  O
  O8       1.0000 0.09808  0.26052  0.00000  Biso   1.000  O
