data_12_2_29187-hse3c
_cell_length_a       5.94291
_cell_length_b       6.75747
_cell_length_c       6.12843
_cell_angle_alpha    73.7112
_cell_angle_beta     135.651
_cell_angle_gamma    123.226

_symmetry_space_group_name_H-M    "P 1"
_symmetry_int_tables_number       1

loop_
  _symmetry_equiv_pos_as_xyz
  'x, y, z'

loop_
  _atom_site_label
  _atom_site_occupancy
  _atom_site_fract_x
  _atom_site_fract_y
  _atom_site_fract_z
  _atom_site_thermal_displace_type
  _atom_site_B_iso_or_equiv
  _atom_site_type_symbol
  H1       1.0000 0.65291  0.00041  0.40868  Biso   1.000  H
  H2       1.0000 0.81627  0.72202  0.52675  Biso   1.000  H
  H3       1.0000 0.13919  0.69780  0.85454  Biso   1.000  H
  H4       1.0000 0.36163  0.03163  0.69788  Biso   1.000  H
  H5       1.0000 0.33793  0.26187  0.62231  Biso   1.000  H
  H6       1.0000 0.97014  0.42288  0.44141  Biso   1.000  H
  H7       1.0000 0.59073  0.81725  0.60994  Biso   1.000  H
  H8       1.0000 0.78440  0.27625  0.14328  Biso   1.000  H
  H9       1.0000 0.63027  0.63984  0.01367  Biso   1.000  H
  H10      1.0000 0.02969  0.79060  0.13752  Biso   1.000  H
  H11      1.0000 0.33707  0.27987  0.22851  Biso   1.000  H
  H12      1.0000 0.00162  0.29565  0.91238  Biso   1.000  H
  O1       1.0000 0.51547  0.20766  0.73762  Biso   1.000  O
  O2       1.0000 0.78476  0.77629  0.98546  Biso   1.000  O
  O3       1.0000 0.04486  0.72366  0.64666  Biso   1.000  O
  O4       1.0000 0.93009  0.28611  0.37146  Biso   1.000  O
  O5       1.0000 0.49313  0.83271  0.39545  Biso   1.000  O
  O6       1.0000 0.25623  0.34173  0.03676  Biso   1.000  O
