data_169_2_7915-hse3c
_cell_length_a       12.3296
_cell_length_b       12.3296
_cell_length_c       4.50241
_cell_angle_alpha    90
_cell_angle_beta     90
_cell_angle_gamma    120

_symmetry_space_group_name_H-M    "P 1"
_symmetry_int_tables_number       1

loop_
  _symmetry_equiv_pos_as_xyz
  'x, y, z'

loop_
  _atom_site_label
  _atom_site_occupancy
  _atom_site_fract_x
  _atom_site_fract_y
  _atom_site_fract_z
  _atom_site_thermal_displace_type
  _atom_site_B_iso_or_equiv
  _atom_site_type_symbol
  H1       1.0000 0.19058  0.51345  0.76713  Biso   1.000  H
  H2       1.0000 0.47673  0.97904  0.84717  Biso   1.000  H
  H3       1.0000 0.49769  0.47673  0.01384  Biso   1.000  H
  H4       1.0000 0.97904  0.50231  0.68050  Biso   1.000  H
  H5       1.0000 0.52327  0.02096  0.34717  Biso   1.000  H
  H6       1.0000 0.37523  0.50550  0.41173  Biso   1.000  H
  H7       1.0000 0.13027  0.62477  0.07839  Biso   1.000  H
  H8       1.0000 0.49450  0.86973  0.74506  Biso   1.000  H
  H9       1.0000 0.62477  0.49450  0.91173  Biso   1.000  H
  H10      1.0000 0.86973  0.37523  0.57839  Biso   1.000  H
  H11      1.0000 0.50550  0.13027  0.24506  Biso   1.000  H
  H12      1.0000 0.02096  0.49769  0.18050  Biso   1.000  H
  H13      1.0000 0.32287  0.80942  0.43380  Biso   1.000  H
  H14      1.0000 0.48655  0.67713  0.10047  Biso   1.000  H
  H15      1.0000 0.50231  0.52327  0.51384  Biso   1.000  H
  H16      1.0000 0.67713  0.19058  0.93380  Biso   1.000  H
  H17      1.0000 0.60836  0.34963  0.34592  Biso   1.000  H
  H18      1.0000 0.65037  0.25874  0.67926  Biso   1.000  H
  H19      1.0000 0.74126  0.39164  0.01259  Biso   1.000  H
  H20      1.0000 0.80942  0.48655  0.26713  Biso   1.000  H
  H21      1.0000 0.34963  0.74126  0.17926  Biso   1.000  H
  H22      1.0000 0.39164  0.65037  0.84592  Biso   1.000  H
  H23      1.0000 0.25874  0.60836  0.51259  Biso   1.000  H
  H24      1.0000 0.51345  0.32287  0.60047  Biso   1.000  H
  O1       1.0000 0.07130  0.54166  0.00604  Biso   1.000  O
  O2       1.0000 0.45834  0.52964  0.33937  Biso   1.000  O
  O3       1.0000 0.54166  0.47036  0.83937  Biso   1.000  O
  O4       1.0000 0.92870  0.45834  0.50604  Biso   1.000  O
  O5       1.0000 0.52964  0.07130  0.17271  Biso   1.000  O
  O6       1.0000 0.26294  0.54505  0.63729  Biso   1.000  O
  O7       1.0000 0.28211  0.73706  0.30396  Biso   1.000  O
  O8       1.0000 0.45495  0.71789  0.97063  Biso   1.000  O
  O9       1.0000 0.73706  0.45495  0.13729  Biso   1.000  O
  O10      1.0000 0.71789  0.26294  0.80396  Biso   1.000  O
  O11      1.0000 0.47036  0.92870  0.67271  Biso   1.000  O
  O12      1.0000 0.54505  0.28211  0.47063  Biso   1.000  O
