
#######################################################################
#
#                 Cambridge Crystallographic Data Centre
#                                CCDC 
#
#######################################################################
#
# If this CIF has been generated from an entry in the Cambridge 
# Structural Database, then it will include bibliographic, chemical, 
# crystal, experimental, refinement or atomic coordinate data resulting 
# from the CCDC's data processing and validation procedures.
#
#######################################################################

data_58_2_511-hse3c
_symmetry_cell_setting           triclinic
_symmetry_space_group_name_H-M   'P 1'
_symmetry_Int_Tables_number      1
_space_group_name_Hall           'P 1'
loop_
_symmetry_equiv_pos_site_id
_symmetry_equiv_pos_as_xyz
1 x,y,z
_cell_length_a                   12.71080232
_cell_length_b                   4.41310828
_cell_length_c                   6.92036382
_cell_angle_alpha                106.553093
_cell_angle_beta                 100.944523
_cell_angle_gamma                65.667423
_cell_volume                     337.88
loop_
_atom_site_label
_atom_site_type_symbol
_atom_site_fract_x
_atom_site_fract_y
_atom_site_fract_z
O1 O 0.2865430795706 0.4488361141403 0.4131801645648
H13 H 0.3211754131512 0.6185848024961 0.4758506403341
H25 H 0.2046254004874 0.5722238795003 0.4402906258123
O2 O -0.2560493243981 -0.2153745505042 -0.4173025301398
H14 H -0.2937393286579 -0.3822977651958 -0.4774236086964
H22 H -0.2564875793273 -0.1674726304874 -0.2697885557948
O3 O 0.3551124496507 -0.01984294070117 -0.3619173319346
H15 H 0.3349734289524 0.1477751124717 -0.4453814729668
H23 H 0.3032977784062 0.08978727757529 -0.2534001335495
O4 O -0.1229534801996 0.2781409767252 0.04976967415765
H16 H -0.1700370203065 0.1422614538652 0.02710327522846
H28 H -0.09789517792588 0.3218559493546 0.1972403044027
O5 O 0.2209973354197 0.3035646682563 -0.01190176272775
H17 H 0.1754854331727 0.5404001714643 -0.02405683878772
H29 H 0.2628354482241 0.3179249590885 0.1220299957383
O6 O -0.3398675003364 0.3107625214006 0.4037859925182
H18 H -0.3168643385208 0.1307098585396 0.4787788521205
H24 H -0.3074361700402 0.1931970234310 0.2747767079614
O7 O 0.09566393043775 -0.07208062737032 -0.08345098088168
H19 H 0.1400413911215 0.07946552785765 -0.04367645238387
H21 H 0.01808780377020 0.05673110880858 -0.03566888013186
O8 O -0.2612777874611 -0.1089285068098 -0.01188763851853
H20 H -0.2108425217729 -0.3395103933538 0.009621448889518
H32 H -0.3429041177286 -0.09379316035553 -0.02817126009576
O9 O 0.06598652768863 -0.2097003229417 -0.4809335060119
H31 H 0.07834101562782 -0.1589969815303 -0.3310561465985
H36 H 0.02292709421789 0.01415330906870 -0.5158394870285
O10 O -0.05333389457274 0.4017724454101 0.4319749384001
H26 H -0.1243042536961 0.5450700473750 0.5033070782061
H34 H -0.006435908972149 0.5455423726982 0.4591108371475
O11 O 0.4534668481437 -0.3689487558581 0.1426148584629
H27 H 0.4964301813365 -0.3952182335680 0.2716270986392
H33 H 0.4672137420111 -0.6040845770181 0.06771510179110
O12 O -0.4765139023519 -0.05622362961021 -0.05125304025645
H30 H -0.5231943595334 -0.06506621690654 -0.1817368267547
H35 H -0.5002776355917 -0.1750202873112 0.02470885888479

#END
