data_58_2_511-hse3c
_cell_length_a       12.7108
_cell_length_b       4.41311
_cell_length_c       6.92036
_cell_angle_alpha    106.553
_cell_angle_beta     100.945
_cell_angle_gamma    65.6674

_symmetry_space_group_name_H-M    "P 1"
_symmetry_int_tables_number       1

loop_
  _symmetry_equiv_pos_as_xyz
  'x, y, z'

loop_
  _atom_site_label
  _atom_site_occupancy
  _atom_site_fract_x
  _atom_site_fract_y
  _atom_site_fract_z
  _atom_site_thermal_displace_type
  _atom_site_B_iso_or_equiv
  _atom_site_type_symbol
  H1       1.0000 0.69256  0.19320  0.27478  Biso   1.000  H
  H2       1.0000 0.46721  0.39592  0.06772  Biso   1.000  H
  H3       1.0000 0.49643  0.60478  0.27163  Biso   1.000  H
  H4       1.0000 0.99356  0.54554  0.45911  Biso   1.000  H
  H5       1.0000 0.87570  0.54507  0.50331  Biso   1.000  H
  H6       1.0000 0.02293  0.01415  0.48416  Biso   1.000  H
  H7       1.0000 0.07834  0.84100  0.66894  Biso   1.000  H
  H8       1.0000 0.65710  0.90621  0.97183  Biso   1.000  H
  H9       1.0000 0.78916  0.66049  0.00962  Biso   1.000  H
  H10      1.0000 0.01809  0.05673  0.96433  Biso   1.000  H
  H11      1.0000 0.14004  0.07947  0.95632  Biso   1.000  H
  H12      1.0000 0.47681  0.93493  0.81826  Biso   1.000  H
  H13      1.0000 0.68314  0.13071  0.47878  Biso   1.000  H
  H14      1.0000 0.26284  0.31792  0.12203  Biso   1.000  H
  H15      1.0000 0.49972  0.82498  0.02471  Biso   1.000  H
  H16      1.0000 0.90210  0.32186  0.19724  Biso   1.000  H
  H17      1.0000 0.32118  0.61858  0.47585  Biso   1.000  H
  H18      1.0000 0.82996  0.14226  0.02710  Biso   1.000  H
  H19      1.0000 0.20463  0.57222  0.44029  Biso   1.000  H
  H20      1.0000 0.30330  0.08979  0.74660  Biso   1.000  H
  H21      1.0000 0.33497  0.14778  0.55462  Biso   1.000  H
  H22      1.0000 0.17549  0.54040  0.97594  Biso   1.000  H
  H23      1.0000 0.74351  0.83253  0.73021  Biso   1.000  H
  H24      1.0000 0.70626  0.61770  0.52258  Biso   1.000  H
  O1       1.0000 0.66013  0.31076  0.40379  Biso   1.000  O
  O2       1.0000 0.52349  0.94378  0.94875  Biso   1.000  O
  O3       1.0000 0.45347  0.63105  0.14261  Biso   1.000  O
  O4       1.0000 0.74395  0.78463  0.58270  Biso   1.000  O
  O5       1.0000 0.35511  0.98016  0.63808  Biso   1.000  O
  O6       1.0000 0.06599  0.79030  0.51907  Biso   1.000  O
  O7       1.0000 0.73872  0.89107  0.98811  Biso   1.000  O
  O8       1.0000 0.87705  0.27814  0.04977  Biso   1.000  O
  O9       1.0000 0.09566  0.92792  0.91655  Biso   1.000  O
  O10      1.0000 0.22100  0.30356  0.98810  Biso   1.000  O
  O11      1.0000 0.94667  0.40177  0.43197  Biso   1.000  O
  O12      1.0000 0.28654  0.44884  0.41318  Biso   1.000  O
