data_15_2_201714-hse3c
_cell_length_a       10.3821
_cell_length_b       7.64944
_cell_length_c       4.2047
_cell_angle_alpha    90
_cell_angle_beta     112.035
_cell_angle_gamma    90

_symmetry_space_group_name_H-M    "P 1"
_symmetry_int_tables_number       1

loop_
  _symmetry_equiv_pos_as_xyz
  'x, y, z'

loop_
  _atom_site_label
  _atom_site_occupancy
  _atom_site_fract_x
  _atom_site_fract_y
  _atom_site_fract_z
  _atom_site_thermal_displace_type
  _atom_site_B_iso_or_equiv
  _atom_site_type_symbol
  H1       1.0000 0.90469  0.10208  0.19905  Biso   1.000  H
  H2       1.0000 0.56438  0.16698  0.44630  Biso   1.000  H
  H3       1.0000 0.43562  0.16698  0.55370  Biso   1.000  H
  H4       1.0000 0.93562  0.33302  0.55370  Biso   1.000  H
  H5       1.0000 0.06438  0.33302  0.44630  Biso   1.000  H
  H6       1.0000 0.06438  0.66698  0.44630  Biso   1.000  H
  H7       1.0000 0.93562  0.66698  0.55370  Biso   1.000  H
  H8       1.0000 0.59531  0.39792  0.80095  Biso   1.000  H
  H9       1.0000 0.40469  0.39792  0.19905  Biso   1.000  H
  H10      1.0000 0.40469  0.60208  0.19905  Biso   1.000  H
  H11      1.0000 0.59531  0.60208  0.80095  Biso   1.000  H
  H12      1.0000 0.09531  0.89792  0.80095  Biso   1.000  H
  H13      1.0000 0.90469  0.89792  0.19905  Biso   1.000  H
  H14      1.0000 0.56438  0.83302  0.44630  Biso   1.000  H
  H15      1.0000 0.09531  0.10208  0.80095  Biso   1.000  H
  H16      1.0000 0.43562  0.83302  0.55370  Biso   1.000  H
  H17      1.0000 0.77414  0.50000  0.72113  Biso   1.000  H
  H18      1.0000 0.22586  0.50000  0.27887  Biso   1.000  H
  H19      1.0000 0.27414  0.00000  0.72113  Biso   1.000  H
  H20      1.0000 0.72586  0.00000  0.27887  Biso   1.000  H
  H21      1.0000 0.75426  0.50000  0.33239  Biso   1.000  H
  H22      1.0000 0.74574  0.00000  0.66761  Biso   1.000  H
  H23      1.0000 0.25426  0.00000  0.33239  Biso   1.000  H
  H24      1.0000 0.24574  0.50000  0.66761  Biso   1.000  H
  O1       1.0000 0.65141  0.50000  0.91505  Biso   1.000  O
  O2       1.0000 0.32549  0.00000  0.56688  Biso   1.000  O
  O3       1.0000 0.17451  0.50000  0.43312  Biso   1.000  O
  O4       1.0000 0.82549  0.50000  0.56688  Biso   1.000  O
  O5       1.0000 0.00000  0.25477  0.50000  Biso   1.000  O
  O6       1.0000 0.50000  0.24523  0.50000  Biso   1.000  O
  O7       1.0000 0.34859  0.50000  0.08495  Biso   1.000  O
  O8       1.0000 0.00000  0.74523  0.50000  Biso   1.000  O
  O9       1.0000 0.15141  0.00000  0.91505  Biso   1.000  O
  O10      1.0000 0.84859  0.00000  0.08495  Biso   1.000  O
  O11      1.0000 0.50000  0.75477  0.50000  Biso   1.000  O
  O12      1.0000 0.67451  0.00000  0.43312  Biso   1.000  O
