data_IRR-hse3c
_cell_length_a       14.564
_cell_length_b       10.7155
_cell_length_c       10.5053
_cell_angle_alpha    119.913
_cell_angle_beta     94.6346
_cell_angle_gamma    89.1277

_symmetry_space_group_name_H-M    "P 1"
_symmetry_int_tables_number       1

loop_
  _symmetry_equiv_pos_as_xyz
  'x, y, z'

loop_
  _atom_site_label
  _atom_site_occupancy
  _atom_site_fract_x
  _atom_site_fract_y
  _atom_site_fract_z
  _atom_site_thermal_displace_type
  _atom_site_B_iso_or_equiv
  _atom_site_type_symbol
  H1       1.0000 0.61859  0.24958  0.59799  Biso   1.000  H
  H2       1.0000 0.30350  0.78162  0.15912  Biso   1.000  H
  H3       1.0000 0.33137  0.78699  0.30876  Biso   1.000  H
  H4       1.0000 0.36619  0.82039  0.72930  Biso   1.000  H
  H5       1.0000 0.30454  0.93248  0.70344  Biso   1.000  H
  H6       1.0000 0.72157  0.23292  0.21901  Biso   1.000  H
  H7       1.0000 0.71332  0.11880  0.27107  Biso   1.000  H
  H8       1.0000 0.73889  0.76219  0.65224  Biso   1.000  H
  H9       1.0000 0.67948  0.89965  0.69092  Biso   1.000  H
  H10      1.0000 0.32071  0.17706  0.47963  Biso   1.000  H
  H11      1.0000 0.28911  0.01251  0.39033  Biso   1.000  H
  H12      1.0000 0.68664  0.88849  0.12312  Biso   1.000  H
  H13      1.0000 0.73414  0.88377  0.25959  Biso   1.000  H
  H14      1.0000 0.30388  0.17918  0.81255  Biso   1.000  H
  H15      1.0000 0.28278  0.10920  0.63514  Biso   1.000  H
  H16      1.0000 0.69469  0.67813  0.26902  Biso   1.000  H
  H17      1.0000 0.72919  0.78978  0.43030  Biso   1.000  H
  H18      1.0000 0.34471  0.56589  0.85270  Biso   1.000  H
  H19      1.0000 0.38563  0.45710  0.69721  Biso   1.000  H
  H20      1.0000 0.22512  0.70493  0.92265  Biso   1.000  H
  H21      1.0000 0.60032  0.08372  0.49868  Biso   1.000  H
  H22      1.0000 0.25718  0.63942  0.34963  Biso   1.000  H
  H23      1.0000 0.31415  0.73538  0.49938  Biso   1.000  H
  H24      1.0000 0.85709  0.31793  0.90254  Biso   1.000  H
  H25      1.0000 0.88784  0.44189  0.06592  Biso   1.000  H
  H26      1.0000 0.98293  0.56963  0.82618  Biso   1.000  H
  H27      1.0000 0.03037  0.69283  0.97535  Biso   1.000  H
  H28      1.0000 0.86715  0.59134  0.42030  Biso   1.000  H
  H29      1.0000 0.61236  0.11029  0.75519  Biso   1.000  H
  H30      1.0000 0.66317  0.14134  0.90587  Biso   1.000  H
  H31      1.0000 0.42529  0.54869  0.30987  Biso   1.000  H
  H32      1.0000 0.41584  0.41608  0.15011  Biso   1.000  H
  H33      1.0000 0.77714  0.29516  0.05904  Biso   1.000  H
  H34      1.0000 0.68158  0.36127  0.10677  Biso   1.000  H
  H35      1.0000 0.78725  0.64193  0.79667  Biso   1.000  H
  H36      1.0000 0.85049  0.60108  0.67168  Biso   1.000  H
  H37      1.0000 0.21699  0.25228  0.26847  Biso   1.000  H
  H38      1.0000 0.22948  0.39848  0.27696  Biso   1.000  H
  H39      1.0000 0.48157  0.06464  0.28594  Biso   1.000  H
  H40      1.0000 0.43963  0.92703  0.27701  Biso   1.000  H
  H41      1.0000 0.50721  0.13819  0.08787  Biso   1.000  H
  H42      1.0000 0.52648  0.07732  0.92235  Biso   1.000  H
  H43      1.0000 0.43526  0.67981  0.78559  Biso   1.000  H
  H44      1.0000 0.49382  0.71770  0.69054  Biso   1.000  H
  H45      1.0000 0.50512  0.34920  0.29135  Biso   1.000  H
  H46      1.0000 0.80526  0.46549  0.39935  Biso   1.000  H
  H47      1.0000 0.58880  0.27219  0.32678  Biso   1.000  H
  H48      1.0000 0.60305  0.68924  0.55623  Biso   1.000  H
  H49      1.0000 0.34050  0.34870  0.43986  Biso   1.000  H
  H50      1.0000 0.44222  0.31123  0.45740  Biso   1.000  H
  H51      1.0000 0.53908  0.83197  0.94560  Biso   1.000  H
  H52      1.0000 0.54234  0.87815  0.11450  Biso   1.000  H
  H53      1.0000 0.30278  0.25024  0.05054  Biso   1.000  H
  H54      1.0000 0.39868  0.19663  0.99030  Biso   1.000  H
  H55      1.0000 0.58154  0.64873  0.95958  Biso   1.000  H
  H56      1.0000 0.50644  0.52727  0.88062  Biso   1.000  H
  H57      1.0000 0.60470  0.51981  0.06165  Biso   1.000  H
  H58      1.0000 0.56539  0.51346  0.19255  Biso   1.000  H
  H59      1.0000 0.68898  0.47163  0.64139  Biso   1.000  H
  H60      1.0000 0.61185  0.47966  0.74050  Biso   1.000  H
  H61      1.0000 0.57537  0.55178  0.56098  Biso   1.000  H
  H62      1.0000 0.18185  0.46961  0.50718  Biso   1.000  H
  H63      1.0000 0.21661  0.56580  0.93655  Biso   1.000  H
  H64      1.0000 0.83001  0.63697  0.01956  Biso   1.000  H
  H65      1.0000 0.84766  0.67946  0.24424  Biso   1.000  H
  H66      1.0000 0.95145  0.67689  0.20703  Biso   1.000  H
  H67      1.0000 0.76375  0.51876  0.90098  Biso   1.000  H
  H68      1.0000 0.09204  0.41988  0.18817  Biso   1.000  H
  H69      1.0000 0.14362  0.41334  0.05585  Biso   1.000  H
  H70      1.0000 0.16281  0.08243  0.73082  Biso   1.000  H
  H71      1.0000 0.08288  0.08599  0.82453  Biso   1.000  H
  H72      1.0000 0.98598  0.04504  0.59171  Biso   1.000  H
  H73      1.0000 0.88429  0.08182  0.62242  Biso   1.000  H
  H74      1.0000 0.83778  0.94575  0.14664  Biso   1.000  H
  H75      1.0000 0.00963  0.93047  0.16633  Biso   1.000  H
  H76      1.0000 0.08662  0.85305  0.21264  Biso   1.000  H
  H77      1.0000 0.13851  0.62187  0.56446  Biso   1.000  H
  H78      1.0000 0.89787  0.15864  0.44645  Biso   1.000  H
  H79      1.0000 0.89554  0.88311  0.01021  Biso   1.000  H
  H80      1.0000 0.81843  0.24303  0.41282  Biso   1.000  H
  H81      1.0000 0.03363  0.74635  0.52589  Biso   1.000  H
  H82      1.0000 0.10985  0.86349  0.61037  Biso   1.000  H
  H83      1.0000 0.15349  0.16351  0.49216  Biso   1.000  H
  H84      1.0000 0.07481  0.23036  0.44288  Biso   1.000  H
  H85      1.0000 0.93128  0.78429  0.64681  Biso   1.000  H
  H86      1.0000 0.05248  0.43890  0.39208  Biso   1.000  H
  H87      1.0000 0.95577  0.41131  0.30847  Biso   1.000  H
  H88      1.0000 0.91068  0.84732  0.54023  Biso   1.000  H
  H89      1.0000 0.13513  0.03318  0.15806  Biso   1.000  H
  H90      1.0000 0.04376  0.82058  0.82449  Biso   1.000  H
  H91      1.0000 0.95163  0.11447  0.07085  Biso   1.000  H
  H92      1.0000 0.97704  0.94693  0.87185  Biso   1.000  H
  H93      1.0000 0.82601  0.26852  0.64421  Biso   1.000  H
  H94      1.0000 0.10642  0.13715  0.10104  Biso   1.000  H
  H95      1.0000 0.74406  0.20218  0.67758  Biso   1.000  H
  H96      1.0000 0.10527  0.63423  0.21249  Biso   1.000  H
  H97      1.0000 0.94806  0.21134  0.99983  Biso   1.000  H
  H98      1.0000 0.09150  0.75593  0.36968  Biso   1.000  H
  H99      1.0000 0.12985  0.34395  0.78148  Biso   1.000  H
  H100     1.0000 0.02546  0.50942  0.61778  Biso   1.000  H
  H101     1.0000 0.22300  0.82446  0.79565  Biso   1.000  H
  H102     1.0000 0.08231  0.47926  0.90033  Biso   1.000  H
  H103     1.0000 0.93902  0.40724  0.58261  Biso   1.000  H
  H104     1.0000 0.18730  0.92254  0.95099  Biso   1.000  H
  O1       1.0000 0.38385  0.32563  0.50122  Biso   1.000  O
  O2       1.0000 0.09412  0.20753  0.51826  Biso   1.000  O
  O3       1.0000 0.25763  0.64730  0.96033  Biso   1.000  O
  O4       1.0000 0.71555  0.27111  0.07374  Biso   1.000  O
  O5       1.0000 0.49762  0.97602  0.28366  Biso   1.000  O
  O6       1.0000 0.89576  0.95853  0.11161  Biso   1.000  O
  O7       1.0000 0.55050  0.62722  0.54401  Biso   1.000  O
  O8       1.0000 0.78758  0.62730  0.69632  Biso   1.000  O
  O9       1.0000 0.89015  0.63292  0.16767  Biso   1.000  O
  O10      1.0000 0.52236  0.26619  0.30302  Biso   1.000  O
  O11      1.0000 0.13583  0.41519  0.88511  Biso   1.000  O
  O12      1.0000 0.24690  0.34843  0.33060  Biso   1.000  O
  O13      1.0000 0.45895  0.76207  0.77974  Biso   1.000  O
  O14      1.0000 0.09837  0.05102  0.72538  Biso   1.000  O
  O15      1.0000 0.57677  0.82999  0.02627  Biso   1.000  O
  O16      1.0000 0.47818  0.09515  0.98834  Biso   1.000  O
  O17      1.0000 0.80508  0.24762  0.71806  Biso   1.000  O
  O18      1.0000 0.84848  0.49088  0.35128  Biso   1.000  O
  O19      1.0000 0.07499  0.90822  0.16161  Biso   1.000  O
  O20      1.0000 0.34948  0.26723  0.00072  Biso   1.000  O
  O21      1.0000 0.13558  0.53238  0.56778  Biso   1.000  O
  O22      1.0000 0.00572  0.59533  0.92727  Biso   1.000  O
  O23      1.0000 0.18165  0.82626  0.86586  Biso   1.000  O
  O24      1.0000 0.87735  0.33738  0.00171  Biso   1.000  O
  O25      1.0000 0.31762  0.68204  0.39105  Biso   1.000  O
  O26      1.0000 0.98077  0.12994  0.99990  Biso   1.000  O
  O27      1.0000 0.62465  0.15727  0.59550  Biso   1.000  O
  O28      1.0000 0.97877  0.84179  0.82093  Biso   1.000  O
  O29      1.0000 0.40059  0.53343  0.79871  Biso   1.000  O
  O30      1.0000 0.73599  0.76240  0.32811  Biso   1.000  O
  O31      1.0000 0.16088  0.10100  0.13024  Biso   1.000  O
  O32      1.0000 0.27369  0.09971  0.72224  Biso   1.000  O
  O33      1.0000 0.96342  0.50580  0.64484  Biso   1.000  O
  O34      1.0000 0.73408  0.93680  0.20544  Biso   1.000  O
  O35      1.0000 0.92070  0.75708  0.54212  Biso   1.000  O
  O36      1.0000 0.27641  0.10638  0.47435  Biso   1.000  O
  O37      1.0000 0.69987  0.80971  0.61005  Biso   1.000  O
  O38      1.0000 0.78027  0.61895  0.94309  Biso   1.000  O
  O39      1.0000 0.71577  0.22271  0.30616  Biso   1.000  O
  O40      1.0000 0.30659  0.83312  0.68406  Biso   1.000  O
  O41      1.0000 0.14731  0.45125  0.16233  Biso   1.000  O
  O42      1.0000 0.33113  0.84427  0.25920  Biso   1.000  O
  O43      1.0000 0.92316  0.01222  0.55059  Biso   1.000  O
  O44      1.0000 0.62459  0.06951  0.81895  Biso   1.000  O
  O45      1.0000 0.45941  0.47152  0.23619  Biso   1.000  O
  O46      1.0000 0.62854  0.43263  0.63777  Biso   1.000  O
  O47      1.0000 0.86990  0.25136  0.48377  Biso   1.000  O
  O48      1.0000 0.62312  0.51673  0.15228  Biso   1.000  O
  O49      1.0000 0.57267  0.54318  0.91282  Biso   1.000  O
  O50      1.0000 0.10094  0.76291  0.53141  Biso   1.000  O
  O51      1.0000 0.02013  0.38226  0.29557  Biso   1.000  O
  O52      1.0000 0.07869  0.72882  0.26532  Biso   1.000  O
