
#######################################################################
#
#                 Cambridge Crystallographic Data Centre
#                                CCDC 
#
#######################################################################
#
# If this CIF has been generated from an entry in the Cambridge 
# Structural Database, then it will include bibliographic, chemical, 
# crystal, experimental, refinement or atomic coordinate data resulting 
# from the CCDC's data processing and validation procedures.
#
#######################################################################

data_IRR-hse3c
_symmetry_cell_setting           triclinic
_symmetry_space_group_name_H-M   'P 1'
_symmetry_Int_Tables_number      1
_space_group_name_Hall           'P 1'
loop_
_symmetry_equiv_pos_site_id
_symmetry_equiv_pos_as_xyz
1 x,y,z
_cell_length_a                   14.56400149
_cell_length_b                   10.71548804
_cell_length_c                   10.50526879
_cell_angle_alpha                119.913076
_cell_angle_beta                 94.634616
_cell_angle_gamma                89.127702
_cell_volume                     1415.81
loop_
_atom_site_label
_atom_site_type_symbol
_atom_site_fract_x
_atom_site_fract_y
_atom_site_fract_z
O1 O 0.07869108716202 -0.2711836927650 0.2653192995410
H53 H 0.09149897883717 -0.2440722128701 0.3696836335666
H77 H 0.1052723328562 -0.3657722843490 0.2124940324003
O2 O -0.1949160422623 0.2476177361739 -0.2819426783212
H54 H -0.2559395511535 0.2021824041512 -0.3224203907499
H102 H -0.1739908106805 0.2685181418933 -0.3557890108399
O3 O 0.1358274660121 0.4151943083536 -0.1148907609157
H55 H 0.1298513886752 0.3439467476041 -0.2185193240580
H80 H 0.08231046978133 0.4792587366364 -0.09967113538917
O4 O -0.1098463931588 -0.3670832511720 0.1676733041968
H56 H -0.1523410921819 -0.3205357071700 0.2442351346576
H101 H -0.04854713527042 -0.3231074939055 0.2070269306693
O5 O 0.09837234181172 0.05101912961921 -0.2746228122102
H57 H 0.1628053819597 0.08242978891178 -0.2691785687131
H81 H 0.08287995414477 0.08598675265104 -0.1754684524660
O6 O -0.1042428340283 -0.04147356917580 0.1116144837289
H58 H -0.1622196551588 -0.05424654120643 0.1466365988295
H82 H -0.1044574091413 -0.1168871154864 0.01020533427415
O7 O 0.09411729368866 0.2075312339437 0.5182647358143
H59 H 0.1534854593739 0.1635091836767 0.4921607672120
H83 H 0.07481208025787 0.2303594399875 0.4428829933125
O8 O -0.07930454779580 -0.2429212702510 -0.4578814971581
H60 H -0.08932366103674 -0.1526831951717 -0.4597713977132
H84 H -0.06871541168035 -0.2157146337182 -0.3531865604314
O9 O 0.1009386137138 -0.2370886569828 -0.4685896404367
H62 H 0.1098511630084 -0.1365111686542 -0.3896325298667
H106 H 0.03362642248861 -0.2536469624794 -0.4741090543065
O10 O -0.1301028323183 0.2513631880240 0.4837666460116
H61 H -0.1815687255146 0.2430281700629 0.4128219044588
H105 H -0.1021330768379 0.1586406699129 0.4464503218939
O11 O 0.07499209193301 -0.09177664869848 0.1616102370386
H63 H 0.08661708044788 -0.1469504559590 0.2126419832842
H103 H 0.009630522347891 -0.06953433666309 0.1663295780479
O12 O -0.07684114286178 0.01222271451531 -0.4494093898267
H64 H -0.1157081045967 0.08182124351319 -0.3775776802519
H104 H -0.01402345877714 0.04504213678678 -0.4082920221484
O13 O 0.1473067940232 0.4512489455644 0.1623315740049
H91 H 0.1436169578245 0.4133375570081 0.05584971121142
H108 H 0.09204274609419 0.4198797827336 0.1881668174535
O14 O -0.2197309433515 -0.3810475753626 -0.05691456581424
H78 H -0.2362452461690 -0.4812359585451 -0.09902093959063
H92 H -0.1699852175643 -0.3630313448912 0.01955831923516
O15 O 0.02013280179656 0.3822615324489 0.2955692824018
H97 H 0.05248399663468 0.4388959638698 0.3920827771511
H109 H -0.04423284417097 0.4113140670878 0.3084693279085
O16 O -0.03658237017322 -0.4941985860275 -0.3551570084847
H98 H -0.06097998096310 -0.5927575770960 -0.4173934569892
H110 H 0.02545662562959 -0.4905828784814 -0.3822184163379
O17 O 0.1608809884711 0.1010041042327 0.1302427681724
H99 H 0.1351317557557 0.03317685139232 0.1580582747756
H111 H 0.1064222764646 0.1371464327891 0.1010386088685
O18 O -0.02122503344223 -0.1582073946733 -0.1790655253849
H100 H -0.02295860716193 -0.05307454753036 -0.1281455608988
H112 H 0.04375981003642 -0.1794184535186 -0.1755147901252
O19 O -0.01922576489240 0.1299441568707 -0.0001020815274246
H87 H -0.05194201510743 0.2113447890901 -0.0001672554174363
H93 H -0.04836952802557 0.1144687142851 0.07084827981630
O20 O 0.1816451406501 -0.1737424034049 -0.1341404593176
H88 H 0.1873044000781 -0.07746297561629 -0.04900653168074
H94 H 0.2229971538873 -0.1755423749439 -0.2043511032214
O21 O 0.1355766950485 -0.4676197387578 -0.4322212452186
H85 H 0.1385132061399 -0.3781281298351 -0.4355435029743
H95 H 0.1818490606370 -0.5303937844709 -0.4928184903257
O22 O -0.1515246605575 0.4908765161687 0.3512803510828
H86 H -0.1947375251353 0.4654930295129 0.3993525608200
H96 H -0.1328481901039 0.5913370211860 0.4203011706835
O23 O 0.005719128371563 -0.4046693247867 -0.07272764945813
H89 H 0.03037407727862 -0.3071690179598 -0.02465200592882
H107 H -0.01707172079974 -0.4303746019546 -0.1738201009789
O24 O -0.1226493988485 0.3373782265369 0.001714277925570
H79 H -0.1121569346324 0.4418882794304 0.06591715625050
H90 H -0.1429148540567 0.3179335020459 -0.09746019340312
O25 O 0.3176173601479 -0.3179645123144 0.3910451333955
H67 H 0.3141501994656 -0.2646172352492 0.4993808582208
H125 H 0.2571847502851 -0.3605803318851 0.3496323442046
O26 O -0.3753456374898 0.1572743426450 -0.4045048567954
H68 H -0.3996792855539 0.08372233847210 -0.5013211932717
H114 H -0.3814057392869 0.2495794239767 -0.4020078837363
O27 O 0.4005862639216 -0.4665735848139 -0.2012912737283
H73 H 0.3856255385344 -0.5429028749096 -0.3027931421369
H128 H 0.3447102159814 -0.4341135484834 -0.1472977586689
O28 O -0.2640116336625 -0.2375984109004 0.3281080477199
H74 H -0.2708075578433 -0.2102225900873 0.4302969270408
H115 H -0.3053086005053 -0.3218720928766 0.2690214249648
O29 O 0.2736874807565 0.09971170183295 -0.2777645971185
H65 H 0.2827816734925 0.1092013427603 -0.3648637630542
H118 H 0.3038766197916 0.1791828011508 -0.1874531662366
O30 O -0.2659167377029 -0.06319766491994 0.2054389727588
H66 H -0.2658556305674 -0.1162342080951 0.2595920728505
H117 H -0.3133643284733 -0.1115116410987 0.1231211294344
O31 O 0.2764100620185 0.1063768025197 0.4743461308786
H69 H 0.2891073953966 0.01251420617417 0.3903305526883
H119 H 0.3207114067994 0.1770561390389 0.4796263532565
O32 O -0.3001295704090 -0.1902862429715 -0.3899495440539
H70 H -0.3205199754726 -0.1003454751380 -0.3090839844126
H132 H -0.2611129430928 -0.2378110689942 -0.3477603367857
O33 O -0.2842275474292 0.2227102889851 0.3061610765781
H71 H -0.2866824942243 0.1187987021638 0.2710654503261
H133 H -0.2784283044840 0.2329170560222 0.2190087373613
O34 O 0.3065858875531 -0.1668843701904 -0.3159395193422
H72 H 0.3045435760147 -0.06752302675335 -0.2965579682178
H122 H 0.3661910375147 -0.1796139608132 -0.2707047961683
O35 O 0.3311318413448 -0.1557348555100 0.2591962447342
H75 H 0.3313712756475 -0.2130134878325 0.3087631335367
H136 H 0.3035022929457 -0.2183827941795 0.1591212200673
O36 O -0.3754118221845 0.06950956049687 -0.1810498072864
H76 H -0.3876423916627 0.1102852296141 -0.2448083630433
H135 H -0.3368278539968 0.1413350821303 -0.09413180151774
O37 O 0.4594080811515 0.4715245245493 0.2361920087543
H113 H 0.4252886981552 0.5486851313979 0.3098656186806
H143 H 0.4158415240177 0.4160795002810 0.1501132700581
O38 O -0.3714649772628 0.4326349010772 -0.3622255253392
H138 H -0.3881455591453 0.4796587832153 -0.2595019890878
H144 H -0.3110240697367 0.4716283653644 -0.3586126051860
O39 O -0.3768763155031 -0.4832665647415 0.1522763715599
H137 H -0.4346054696663 -0.4865392709389 0.1925460637363
H145 H -0.3953004912665 -0.4801850124368 0.06164593982847
O40 O -0.4273296256273 -0.4568220355506 -0.08718159402628
H116 H -0.4935597473792 -0.4727288496114 -0.1193769872991
H146 H -0.4184575420692 -0.3512712634862 -0.04041603345997
O41 O 0.3494846587848 0.2672300617530 0.0007176768200559
H139 H 0.3986768641276 0.1966294981895 -0.009697031003418
H147 H 0.3027849502287 0.2502438659716 0.05053600959527
O42 O -0.4232292796240 -0.1700064655682 0.02626870338278
H140 H -0.4576599627284 -0.1218499560104 0.1144953195063
H148 H -0.4609153093755 -0.1680344368362 -0.05439808908717
O43 O 0.3838513556801 0.3256267491657 0.5012190909201
H141 H 0.4422186126852 0.3112298605779 0.4574032038729
H149 H 0.3404958458019 0.3486956934191 0.4398630779557
O44 O -0.4495010160248 -0.3727758493707 -0.4559932050887
H120 H -0.3969509981669 -0.3107615255603 -0.4437695191880
H150 H -0.4246262999575 -0.4482191052193 -0.4390158333916
O45 O -0.4776445528508 0.2661867709368 0.3030201559783
H121 H -0.4111977823526 0.2721943710783 0.3267837968913
H151 H -0.4948821499091 0.3491977726397 0.2913491344275
O46 O 0.4589549140542 -0.2379307979145 -0.2202595486522
H142 H 0.4938159171976 -0.2822962641174 -0.3094556613182
H152 H 0.4352636003442 -0.3201919437009 -0.2144108237637
O47 O -0.5218209445637 0.09514753821475 -0.01166073730524
H124 H -0.4735193900665 0.07732390806734 -0.07764751327082
H153 H -0.4927878171087 0.1381935277283 0.08786639493314
O48 O 0.4976248899682 -0.02397669140466 0.2836640289214
H123 H 0.4396347952821 -0.07297352761097 0.2770078187213
H154 H 0.4815707110570 0.06463834145338 0.2859415390793
O49 O 0.2469034258173 0.3484290551421 0.3305976059383
H129 H 0.2294802978797 0.3984829713228 0.2769622199396
H131 H 0.2169929641974 0.2522787285688 0.2684707011897
O50 O -0.2124235420546 -0.3727009689454 -0.3036844152562
H126 H -0.1495088887499 -0.3989182627345 -0.3283175164422
H130 H -0.2127492968533 -0.3580691795423 -0.2033305613137
O51 O -0.2844495310720 0.2711101455324 0.07374121753961
H127 H -0.3184208156875 0.3612692562460 0.1067658922706
H155 H -0.2228605793339 0.2951623613120 0.05904044472232
O52 O 0.2576300708612 -0.3527033397309 -0.03966710753149
H134 H 0.2251158980607 -0.2950699564882 -0.07734874834985
H156 H 0.2166060315049 -0.4342001231226 -0.06345303545505

#END
