data_PCOD8047078-hse3c
_cell_length_a       4.30283
_cell_length_b       11.413
_cell_length_c       6.4718
_cell_angle_alpha    90
_cell_angle_beta     98.4214
_cell_angle_gamma    90

_symmetry_space_group_name_H-M    "P 1"
_symmetry_int_tables_number       1

loop_
  _symmetry_equiv_pos_as_xyz
  'x, y, z'

loop_
  _atom_site_label
  _atom_site_occupancy
  _atom_site_fract_x
  _atom_site_fract_y
  _atom_site_fract_z
  _atom_site_thermal_displace_type
  _atom_site_B_iso_or_equiv
  _atom_site_type_symbol
  H1       1.0000 0.07598  0.94639  0.39263  Biso   1.000  H
  H2       1.0000 0.56251  0.92841  0.33320  Biso   1.000  H
  H3       1.0000 0.43749  0.42841  0.66680  Biso   1.000  H
  H4       1.0000 0.46780  0.86234  0.79881  Biso   1.000  H
  H5       1.0000 0.53220  0.36234  0.20119  Biso   1.000  H
  H6       1.0000 0.27278  0.76214  0.67299  Biso   1.000  H
  H7       1.0000 0.72722  0.26214  0.32701  Biso   1.000  H
  H8       1.0000 0.78502  0.73916  0.62447  Biso   1.000  H
  H9       1.0000 0.21498  0.23916  0.37553  Biso   1.000  H
  H10      1.0000 0.98641  0.63647  0.54712  Biso   1.000  H
  H11      1.0000 0.01359  0.13647  0.45288  Biso   1.000  H
  H12      1.0000 0.62756  0.31598  0.75466  Biso   1.000  H
  H13      1.0000 0.92402  0.44639  0.60737  Biso   1.000  H
  H14      1.0000 0.96376  0.97686  0.60696  Biso   1.000  H
  H15      1.0000 0.37244  0.81598  0.24534  Biso   1.000  H
  H16      1.0000 0.40992  0.70448  0.98368  Biso   1.000  H
  H17      1.0000 0.19871  0.97568  0.01774  Biso   1.000  H
  H18      1.0000 0.59008  0.20448  0.01632  Biso   1.000  H
  H19      1.0000 0.20097  0.62169  0.10502  Biso   1.000  H
  H20      1.0000 0.79903  0.12169  0.89498  Biso   1.000  H
  H21      1.0000 0.80129  0.47568  0.98226  Biso   1.000  H
  H22      1.0000 0.03624  0.47686  0.39304  Biso   1.000  H
  H23      1.0000 0.30244  0.07387  0.87254  Biso   1.000  H
  H24      1.0000 0.69756  0.57387  0.12746  Biso   1.000  H
  O1       1.0000 0.91199  0.98772  0.45684  Biso   1.000  O
  O2       1.0000 0.86677  0.51688  0.11398  Biso   1.000  O
  O3       1.0000 0.35864  0.90093  0.26020  Biso   1.000  O
  O4       1.0000 0.64136  0.40093  0.73980  Biso   1.000  O
  O5       1.0000 0.47807  0.78040  0.76533  Biso   1.000  O
  O6       1.0000 0.52193  0.28040  0.23467  Biso   1.000  O
  O7       1.0000 0.39425  0.66761  0.11920  Biso   1.000  O
  O8       1.0000 0.96133  0.72165  0.54997  Biso   1.000  O
  O9       1.0000 0.03867  0.22165  0.45003  Biso   1.000  O
  O10      1.0000 0.08801  0.48772  0.54316  Biso   1.000  O
  O11      1.0000 0.60575  0.16761  0.88080  Biso   1.000  O
  O12      1.0000 0.13323  0.01688  0.88602  Biso   1.000  O
