
#######################################################################
#
#                 Cambridge Crystallographic Data Centre
#                                CCDC 
#
#######################################################################
#
# If this CIF has been generated from an entry in the Cambridge 
# Structural Database, then it will include bibliographic, chemical, 
# crystal, experimental, refinement or atomic coordinate data resulting 
# from the CCDC's data processing and validation procedures.
#
#######################################################################

data_DDR-hse3c
_symmetry_cell_setting           triclinic
_symmetry_space_group_name_H-M   'P -1'
_symmetry_Int_Tables_number      2
_space_group_name_Hall           '-P 1'
loop_
_symmetry_equiv_pos_site_id
_symmetry_equiv_pos_as_xyz
1 x,y,z
2 -x,-y,-z
_cell_length_a                   8.26722085
_cell_length_b                   10.32224570
_cell_length_c                   14.56372790
_cell_angle_alpha                94.141951
_cell_angle_beta                 71.674234
_cell_angle_gamma                67.246663
_cell_volume                     1060.97
loop_
_atom_site_label
_atom_site_type_symbol
_atom_site_fract_x
_atom_site_fract_y
_atom_site_fract_z
O1 O 0.05155509795266 -0.3685642305570 -0.4821356923817
H21 H 0.07479753309672 -0.2911694395480 -0.4569559761393
H22 H -0.02757032173066 -0.3880668495460 -0.4251571082796
O2 O -0.3674221266298 0.3285441275075 0.3466614645181
H23 H -0.3154014936607 0.2778983350102 0.2769163972082
H24 H -0.3018919397379 0.2598631136784 0.3793393175203
O3 O -0.4248520293277 -0.3916921738382 -0.01152822364897
H25 H -0.3992904172851 -0.3143537930442 0.01236702358475
H26 H -0.3554113502018 -0.4728029279541 0.01218262360011
O4 O -0.1514177742122 0.3684637884089 0.02932893093753
H27 H -0.1897743572140 0.3070588721802 0.07200581099170
H28 H -0.08907934112721 0.4058447083834 0.06384582087691
O5 O 0.4937437061959 -0.2953570507034 0.2466713554311
H29 H 0.5781368434812 -0.3522277732276 0.2790253058205
H30 H 0.4442077450464 -0.3587825261537 0.2239300143113
O6 O 0.2473854127941 0.3881483498841 0.3235010563498
H31 H 0.2750605971685 0.2959788040766 0.2843157699956
H32 H 0.3395432179235 0.3684488577471 0.3545824528554
O7 O 0.2534380172979 0.1869878252168 0.1841972196433
H33 H 0.1795089384225 0.2686992826401 0.1621729687156
H34 H 0.3858645695314 0.1474979070049 0.1380711464935
O8 O -0.2346497225299 0.05896942793936 -0.3910266950658
H35 H -0.3163019181693 0.1464038916537 -0.3380705385777
H36 H -0.3063707223753 -0.001270062082982 -0.3826998800454
O9 O -0.2154398386692 0.1941482191486 0.1508780932122
H37 H -0.2804831668455 0.1411549328041 0.1310590767885
H38 H -0.08492513551314 0.1223968811361 0.1354083940474
O10 O 0.1470021441761 0.003840998354197 0.1120925882866
H39 H 0.1449074638389 -0.08135318842686 0.1369237731616
H40 H 0.1872534999409 0.05808433562425 0.1516101254304
O11 O 0.4231196207046 0.09486335932068 0.3696434200124
H41 H 0.3792120233881 0.1575939436617 0.4343029589978
H42 H 0.5572025460325 0.03155276142678 0.3516136346427
O12 O -0.3756670626244 0.05361016575217 0.07820353146332
H43 H -0.3555283500075 -0.04296594009864 0.09011072928116
H44 H -0.3029297140281 0.03872633444838 0.007058699667155
O13 O 0.08604891149948 -0.2277385417023 0.1588888270926
H45 H 0.1754583515522 -0.3074693229725 0.1767759846882
H46 H 0.09601912549823 -0.2683095095830 0.09360592362742
O14 O 0.2285461481969 0.2778706703290 -0.4439467574096
H47 H 0.1138880726323 0.3164758285806 -0.4597521337501
H48 H 0.2162501056910 0.2083059819592 -0.4026008814526
O15 O 0.3185493645060 0.2179760385111 -0.09527196563016
H49 H 0.3877777410651 0.2423550553257 -0.1555703496241
H50 H 0.1860252315793 0.2752087077582 -0.07954182169809
O16 O -0.01155078952032 -0.4419281481952 -0.1490890148186
H51 H -0.08332034399563 -0.4973250840870 -0.1419380634603
H52 H 0.08825181519711 -0.4807867354808 -0.2171307996820
O17 O 0.2658529549526 0.4565230823878 -0.3215824147624
H53 H 0.3056039652727 0.5316299799459 -0.3436992271595
H54 H 0.2547211849329 0.4009044750663 -0.3758933593824
O18 O 0.3315313279186 -0.4571960917925 0.1951162443822
H55 H 0.3890671088894 -0.5254638865652 0.1308857115782
H56 H 0.2940230989283 -0.5090234772699 0.2466445061455
O19 O 0.2103485678563 0.08261432910515 -0.3327796214309
H57 H 0.1156294119618 0.1302420895270 -0.2658215912166
H58 H 0.1725352000007 0.01540685033753 -0.3621240275189
O20 O -0.1254204083781 0.1051107689254 0.4242831235350
H59 H 0.01258157938186 0.04633458604527 0.4036867454330
H60 H -0.1785699966009 0.09729744564615 0.4935584276333

#END
