data_DDR-hse3c
_cell_length_a       8.26722
_cell_length_b       10.3222
_cell_length_c       14.5637
_cell_angle_alpha    94.142
_cell_angle_beta     71.6742
_cell_angle_gamma    67.2467

_symmetry_space_group_name_H-M    "P 1"
_symmetry_int_tables_number       1

loop_
  _symmetry_equiv_pos_as_xyz
  'x, y, z'

loop_
  _atom_site_label
  _atom_site_occupancy
  _atom_site_fract_x
  _atom_site_fract_y
  _atom_site_fract_z
  _atom_site_thermal_displace_type
  _atom_site_B_iso_or_equiv
  _atom_site_type_symbol
  H1       1.0000 0.81275  0.94192  0.84839  Biso   1.000  H
  H2       1.0000 0.88611  0.68352  0.45975  Biso   1.000  H
  H3       1.0000 0.11389  0.31648  0.54025  Biso   1.000  H
  H4       1.0000 0.90398  0.26831  0.90639  Biso   1.000  H
  H5       1.0000 0.09602  0.73169  0.09361  Biso   1.000  H
  H6       1.0000 0.82454  0.30747  0.82322  Biso   1.000  H
  H7       1.0000 0.17546  0.69253  0.17678  Biso   1.000  H
  H8       1.0000 0.30293  0.96127  0.99294  Biso   1.000  H
  H9       1.0000 0.69707  0.03873  0.00706  Biso   1.000  H
  H10      1.0000 0.35553  0.04297  0.90989  Biso   1.000  H
  H11      1.0000 0.21625  0.20831  0.59740  Biso   1.000  H
  H12      1.0000 0.64447  0.95703  0.09011  Biso   1.000  H
  H13      1.0000 0.55720  0.03155  0.35161  Biso   1.000  H
  H14      1.0000 0.62079  0.84241  0.56570  Biso   1.000  H
  H15      1.0000 0.37921  0.15759  0.43430  Biso   1.000  H
  H16      1.0000 0.82143  0.09730  0.49356  Biso   1.000  H
  H17      1.0000 0.18725  0.05808  0.15161  Biso   1.000  H
  H18      1.0000 0.85509  0.08135  0.86308  Biso   1.000  H
  H19      1.0000 0.14491  0.91865  0.13692  Biso   1.000  H
  H20      1.0000 0.08493  0.87760  0.86459  Biso   1.000  H
  H21      1.0000 0.91507  0.12240  0.13541  Biso   1.000  H
  H22      1.0000 0.44280  0.96845  0.64839  Biso   1.000  H
  H23      1.0000 0.28048  0.85885  0.86894  Biso   1.000  H
  H24      1.0000 0.78375  0.79169  0.40260  Biso   1.000  H
  H25      1.0000 0.61222  0.75764  0.15557  Biso   1.000  H
  H26      1.0000 0.98742  0.95367  0.59631  Biso   1.000  H
  H27      1.0000 0.01258  0.04633  0.40369  Biso   1.000  H
  H28      1.0000 0.82746  0.98459  0.36212  Biso   1.000  H
  H29      1.0000 0.17254  0.01541  0.63788  Biso   1.000  H
  H30      1.0000 0.88437  0.86976  0.26582  Biso   1.000  H
  H31      1.0000 0.11563  0.13024  0.73418  Biso   1.000  H
  H32      1.0000 0.70598  0.50902  0.75336  Biso   1.000  H
  H33      1.0000 0.29402  0.49098  0.24664  Biso   1.000  H
  H34      1.0000 0.61093  0.52546  0.86911  Biso   1.000  H
  H35      1.0000 0.38778  0.24236  0.84443  Biso   1.000  H
  H36      1.0000 0.38907  0.47454  0.13089  Biso   1.000  H
  H37      1.0000 0.25472  0.40090  0.62411  Biso   1.000  H
  H38      1.0000 0.69440  0.46837  0.34370  Biso   1.000  H
  H39      1.0000 0.30560  0.53163  0.65630  Biso   1.000  H
  H40      1.0000 0.91175  0.48079  0.21713  Biso   1.000  H
  H41      1.0000 0.08825  0.51921  0.78287  Biso   1.000  H
  H42      1.0000 0.08332  0.49733  0.14194  Biso   1.000  H
  H43      1.0000 0.91668  0.50267  0.85806  Biso   1.000  H
  H44      1.0000 0.81397  0.72479  0.07954  Biso   1.000  H
  H45      1.0000 0.18603  0.27521  0.92046  Biso   1.000  H
  H46      1.0000 0.74528  0.59910  0.37589  Biso   1.000  H
  H47      1.0000 0.71952  0.14115  0.13106  Biso   1.000  H
  H48      1.0000 0.17857  0.90270  0.50644  Biso   1.000  H
  H49      1.0000 0.08908  0.59416  0.93615  Biso   1.000  H
  H50      1.0000 0.64459  0.52720  0.01218  Biso   1.000  H
  H51      1.0000 0.68460  0.27790  0.27692  Biso   1.000  H
  H52      1.0000 0.31540  0.72210  0.72308  Biso   1.000  H
  H53      1.0000 0.69811  0.25986  0.37934  Biso   1.000  H
  H54      1.0000 0.55579  0.35878  0.77607  Biso   1.000  H
  H55      1.0000 0.44421  0.64122  0.22393  Biso   1.000  H
  H56      1.0000 0.42186  0.35223  0.72097  Biso   1.000  H
  H57      1.0000 0.30189  0.74014  0.62066  Biso   1.000  H
  H58      1.0000 0.57814  0.64777  0.27903  Biso   1.000  H
  H59      1.0000 0.30637  0.00127  0.38270  Biso   1.000  H
  H60      1.0000 0.60071  0.68565  0.01237  Biso   1.000  H
  H61      1.0000 0.91092  0.40584  0.06385  Biso   1.000  H
  H62      1.0000 0.18977  0.69294  0.92799  Biso   1.000  H
  H63      1.0000 0.81023  0.30706  0.07201  Biso   1.000  H
  H64      1.0000 0.39929  0.31435  0.98763  Biso   1.000  H
  H65      1.0000 0.72494  0.70402  0.71568  Biso   1.000  H
  H66      1.0000 0.33954  0.36845  0.35458  Biso   1.000  H
  H67      1.0000 0.27506  0.29598  0.28432  Biso   1.000  H
  H68      1.0000 0.92520  0.29117  0.45696  Biso   1.000  H
  H69      1.0000 0.69363  0.99873  0.61730  Biso   1.000  H
  H70      1.0000 0.31630  0.85360  0.33807  Biso   1.000  H
  H71      1.0000 0.68370  0.14640  0.66193  Biso   1.000  H
  H72      1.0000 0.07480  0.70883  0.54304  Biso   1.000  H
  H73      1.0000 0.61414  0.85250  0.86193  Biso   1.000  H
  H74      1.0000 0.38586  0.14750  0.13807  Biso   1.000  H
  H75      1.0000 0.82049  0.73130  0.83783  Biso   1.000  H
  H76      1.0000 0.35541  0.47280  0.98782  Biso   1.000  H
  H77      1.0000 0.97243  0.61193  0.57484  Biso   1.000  H
  H78      1.0000 0.66046  0.63155  0.64542  Biso   1.000  H
  H79      1.0000 0.17951  0.26870  0.16217  Biso   1.000  H
  H80      1.0000 0.02757  0.38807  0.42516  Biso   1.000  H
  O1       1.0000 0.21035  0.08261  0.66722  Biso   1.000  O
  O2       1.0000 0.87458  0.10511  0.42428  Biso   1.000  O
  O3       1.0000 0.57515  0.60831  0.98847  Biso   1.000  O
  O4       1.0000 0.42485  0.39169  0.01153  Biso   1.000  O
  O5       1.0000 0.12542  0.89489  0.57572  Biso   1.000  O
  O6       1.0000 0.66847  0.45720  0.80488  Biso   1.000  O
  O7       1.0000 0.73415  0.54348  0.32158  Biso   1.000  O
  O8       1.0000 0.63258  0.32854  0.34666  Biso   1.000  O
  O9       1.0000 0.78965  0.91739  0.33278  Biso   1.000  O
  O10      1.0000 0.26585  0.45652  0.67842  Biso   1.000  O
  O11      1.0000 0.94844  0.36856  0.48214  Biso   1.000  O
  O12      1.0000 0.33153  0.54280  0.19512  Biso   1.000  O
  O13      1.0000 0.36742  0.67146  0.65334  Biso   1.000  O
  O14      1.0000 0.78456  0.19415  0.15088  Biso   1.000  O
  O15      1.0000 0.01155  0.44193  0.14909  Biso   1.000  O
  O16      1.0000 0.21544  0.80585  0.84912  Biso   1.000  O
  O17      1.0000 0.23465  0.94103  0.39103  Biso   1.000  O
  O18      1.0000 0.14700  0.00384  0.11209  Biso   1.000  O
  O19      1.0000 0.85300  0.99616  0.88791  Biso   1.000  O
  O20      1.0000 0.76535  0.05897  0.60897  Biso   1.000  O
  O21      1.0000 0.42312  0.09486  0.36964  Biso   1.000  O
  O22      1.0000 0.57688  0.90514  0.63036  Biso   1.000  O
  O23      1.0000 0.74656  0.81301  0.81580  Biso   1.000  O
  O24      1.0000 0.25344  0.18699  0.18420  Biso   1.000  O
  O25      1.0000 0.62433  0.05361  0.07820  Biso   1.000  O
  O26      1.0000 0.37567  0.94639  0.92180  Biso   1.000  O
  O27      1.0000 0.75261  0.61185  0.67650  Biso   1.000  O
  O28      1.0000 0.08605  0.77226  0.15889  Biso   1.000  O
  O29      1.0000 0.91395  0.22774  0.84111  Biso   1.000  O
  O30      1.0000 0.24739  0.38815  0.32350  Biso   1.000  O
  O31      1.0000 0.22855  0.27787  0.55605  Biso   1.000  O
  O32      1.0000 0.77145  0.72213  0.44395  Biso   1.000  O
  O33      1.0000 0.50626  0.29536  0.75333  Biso   1.000  O
  O34      1.0000 0.49374  0.70464  0.24667  Biso   1.000  O
  O35      1.0000 0.31855  0.21798  0.90473  Biso   1.000  O
  O36      1.0000 0.68145  0.78202  0.09527  Biso   1.000  O
  O37      1.0000 0.15142  0.63154  0.97067  Biso   1.000  O
  O38      1.0000 0.98845  0.55807  0.85091  Biso   1.000  O
  O39      1.0000 0.84858  0.36846  0.02933  Biso   1.000  O
  O40      1.0000 0.05156  0.63144  0.51786  Biso   1.000  O
