data_144_2_7301-hse3c
_cell_length_a       6.12484
_cell_length_b       6.12484
_cell_length_c       5.86496
_cell_angle_alpha    90
_cell_angle_beta     90
_cell_angle_gamma    120

_symmetry_space_group_name_H-M    "P 1"
_symmetry_int_tables_number       1

loop_
  _symmetry_equiv_pos_as_xyz
  'x, y, z'

loop_
  _atom_site_label
  _atom_site_occupancy
  _atom_site_fract_x
  _atom_site_fract_y
  _atom_site_fract_z
  _atom_site_thermal_displace_type
  _atom_site_B_iso_or_equiv
  _atom_site_type_symbol
  H1       1.0000 0.30657  0.93619  0.73857  Biso   1.000  H
  H2       1.0000 0.65631  0.23293  0.05603  Biso   1.000  H
  H3       1.0000 0.36946  0.30612  0.90436  Biso   1.000  H
  H4       1.0000 0.93665  0.63054  0.57103  Biso   1.000  H
  H5       1.0000 0.69388  0.06335  0.23769  Biso   1.000  H
  H6       1.0000 0.76707  0.42337  0.38936  Biso   1.000  H
  H7       1.0000 0.62962  0.69343  0.40524  Biso   1.000  H
  H8       1.0000 0.57663  0.34369  0.72269  Biso   1.000  H
  H9       1.0000 0.23334  0.65577  0.79981  Biso   1.000  H
  H10      1.0000 0.42243  0.76666  0.46648  Biso   1.000  H
  H11      1.0000 0.34423  0.57757  0.13315  Biso   1.000  H
  H12      1.0000 0.06381  0.37038  0.07190  Biso   1.000  H
  O1       1.0000 0.76917  0.23749  0.17898  Biso   1.000  O
  O2       1.0000 0.76251  0.53168  0.51232  Biso   1.000  O
  O3       1.0000 0.46832  0.23083  0.84565  Biso   1.000  O
  O4       1.0000 0.23281  0.76420  0.67496  Biso   1.000  O
  O5       1.0000 0.53139  0.76719  0.34162  Biso   1.000  O
  O6       1.0000 0.23580  0.46861  0.00829  Biso   1.000  O
