
#######################################################################
#
#                 Cambridge Crystallographic Data Centre
#                                CCDC 
#
#######################################################################
#
# If this CIF has been generated from an entry in the Cambridge 
# Structural Database, then it will include bibliographic, chemical, 
# crystal, experimental, refinement or atomic coordinate data resulting 
# from the CCDC's data processing and validation procedures.
#
#######################################################################

data_144_2_7301-hse3c
_symmetry_cell_setting           trigonal
_symmetry_space_group_name_H-M   'P 31'
_symmetry_Int_Tables_number      144
_space_group_name_Hall           'P 31'
loop_
_symmetry_equiv_pos_site_id
_symmetry_equiv_pos_as_xyz
1 x,y,z
2 -y,x-y,1/3+z
3 -x+y,-x,2/3+z
_cell_length_a                   6.12484406
_cell_length_b                   6.12484406
_cell_length_c                   5.86495739
_cell_angle_alpha                90.000000
_cell_angle_beta                 90.000000
_cell_angle_gamma                120.000000
_cell_volume                     190.54
loop_
_atom_site_label
_atom_site_type_symbol
_atom_site_fract_x
_atom_site_fract_y
_atom_site_fract_z
O1 O 0.2357996066774 0.4686130551259 0.008289694546297
H3 H 0.3442306772182 0.5775715994887 0.1331454562336
H4 H 0.06381136971136 0.3703801173051 0.07190349319127
O2 O -0.2308320536512 0.2374884062568 0.1789819809872
H5 H -0.3061150883494 0.06334509688387 0.2376931008597
H6 H -0.3436945574245 0.2329340314011 0.05602627418185

#END
