
#######################################################################
#
#                 Cambridge Crystallographic Data Centre
#                                CCDC 
#
#######################################################################
#
# If this CIF has been generated from an entry in the Cambridge 
# Structural Database, then it will include bibliographic, chemical, 
# crystal, experimental, refinement or atomic coordinate data resulting 
# from the CCDC's data processing and validation procedures.
#
#######################################################################

data_0-hse3c
_symmetry_cell_setting           triclinic
_symmetry_space_group_name_H-M   'P 1'
_symmetry_Int_Tables_number      1
_space_group_name_Hall           'P 1'
loop_
_symmetry_equiv_pos_site_id
_symmetry_equiv_pos_as_xyz
1 x,y,z
_cell_length_a                   6.91601048
_cell_length_b                   6.10593201
_cell_length_c                   7.84602078
_cell_angle_alpha                94.512202
_cell_angle_beta                 111.088987
_cell_angle_gamma                90.307807
_cell_volume                     307.976
loop_
_atom_site_label
_atom_site_type_symbol
_atom_site_fract_x
_atom_site_fract_y
_atom_site_fract_z
O1 O 0.06422253000214 0.1326864247889 0.01899486519141
H13 H 0.09128853578632 0.2319652196052 -0.06346150848067
H14 H 0.1933701168279 0.06604601771780 0.09069230336777
O2 O 0.4290836150803 0.3686319023936 0.4934023845437
H15 H 0.2940535988696 0.3981305678238 0.4041134436154
H16 H 0.4075180400249 0.2796100834495 0.5845261121321
O3 O -0.4765467201253 -0.3893807978594 -0.03580829988596
H17 H -0.3702765509571 -0.3192800579858 -0.06991254961449
H18 H -0.4146393501718 -0.5269462845331 0.01125245117168
O4 O 0.04191245118206 -0.1305047294472 -0.4256340252420
H19 H 0.04679392424131 -0.2261387888931 -0.5292635138515
H20 H -0.06945793209328 -0.03014377832599 -0.4743800252065
O5 O -0.2071298868382 0.2347150899107 0.4503718740808
H21 H -0.3390876962322 0.2709023380892 0.4629789862923
H22 H -0.1009890861532 0.3269215883250 0.5453219580417
O6 O 0.09288600480966 -0.3956795392625 0.2825638375891
H23 H -0.02847286886906 -0.4538239340854 0.1829699623868
H24 H 0.1736266927342 -0.3107805430859 0.2282561665950
O7 O 0.09629169305176 0.4304725522769 -0.2091104299039
H25 H 0.2333171740220 0.4923504544578 -0.1876776095879
H26 H 0.01997137797555 0.5525913234627 -0.1764389413058
O8 O -0.1400160070584 -0.2572277714244 -0.1308723169674
H27 H -0.06475543127198 -0.1157092463834 -0.08104715458424
H28 H -0.2205624718993 -0.2359228673788 -0.2600429546851
O9 O -0.4267130057807 -0.2089435978250 -0.4579796482445
H29 H -0.4839666904089 -0.3579169488546 -0.4632485343635
H30 H -0.4947184570763 -0.1090634980391 -0.3940574552106
O10 O 0.3984527060608 0.07267352473737 -0.2822497485258
H31 H 0.2576335539134 0.0003174516253360 -0.3185331631373
H32 H 0.4657687710418 0.09372056660477 -0.1503178636235
O11 O 0.3631980908904 -0.1485603972617 0.1836702223136
H33 H 0.4270821838335 -0.2304353015787 0.1056150274913
H34 H 0.4621764711102 -0.1464083649798 0.3099982584705
O12 O -0.2944845525573 0.2312880146237 0.08429664859279
H35 H -0.1671484171931 0.1923685132106 0.06402516916463
H36 H -0.2630524067706 0.2259248141008 0.2163060713804

#END
