data_0-hse3c
_cell_length_a       6.91601
_cell_length_b       6.10593
_cell_length_c       7.84602
_cell_angle_alpha    94.5122
_cell_angle_beta     111.089
_cell_angle_gamma    90.3078

_symmetry_space_group_name_H-M    "P 1"
_symmetry_int_tables_number       1

loop_
  _symmetry_equiv_pos_as_xyz
  'x, y, z'

loop_
  _atom_site_label
  _atom_site_occupancy
  _atom_site_fract_x
  _atom_site_fract_y
  _atom_site_fract_z
  _atom_site_thermal_displace_type
  _atom_site_B_iso_or_equiv
  _atom_site_type_symbol
  H1       1.0000 0.17363  0.68922  0.22826  Biso   1.000  H
  H2       1.0000 0.46218  0.85359  0.31000  Biso   1.000  H
  H3       1.0000 0.42708  0.76956  0.10562  Biso   1.000  H
  H4       1.0000 0.46577  0.09372  0.84968  Biso   1.000  H
  H5       1.0000 0.25763  0.00032  0.68147  Biso   1.000  H
  H6       1.0000 0.50528  0.89094  0.60594  Biso   1.000  H
  H7       1.0000 0.51603  0.64208  0.53675  Biso   1.000  H
  H8       1.0000 0.77944  0.76408  0.73996  Biso   1.000  H
  H9       1.0000 0.93524  0.88429  0.91895  Biso   1.000  H
  H10      1.0000 0.01997  0.55259  0.82356  Biso   1.000  H
  H11      1.0000 0.23332  0.49235  0.81232  Biso   1.000  H
  H12      1.0000 0.83285  0.19237  0.06403  Biso   1.000  H
  H13      1.0000 0.97153  0.54618  0.18297  Biso   1.000  H
  H14      1.0000 0.89901  0.32692  0.54532  Biso   1.000  H
  H15      1.0000 0.73695  0.22592  0.21631  Biso   1.000  H
  H16      1.0000 0.93054  0.96986  0.52562  Biso   1.000  H
  H17      1.0000 0.09129  0.23197  0.93654  Biso   1.000  H
  H18      1.0000 0.04679  0.77386  0.47074  Biso   1.000  H
  H19      1.0000 0.19337  0.06605  0.09069  Biso   1.000  H
  H20      1.0000 0.58536  0.47305  0.01125  Biso   1.000  H
  H21      1.0000 0.62972  0.68072  0.93009  Biso   1.000  H
  H22      1.0000 0.66091  0.27090  0.46298  Biso   1.000  H
  H23      1.0000 0.40752  0.27961  0.58453  Biso   1.000  H
  H24      1.0000 0.29405  0.39813  0.40411  Biso   1.000  H
  O1       1.0000 0.09289  0.60432  0.28256  Biso   1.000  O
  O2       1.0000 0.70552  0.23129  0.08430  Biso   1.000  O
  O3       1.0000 0.36320  0.85144  0.18367  Biso   1.000  O
  O4       1.0000 0.42908  0.36863  0.49340  Biso   1.000  O
  O5       1.0000 0.52345  0.61062  0.96419  Biso   1.000  O
  O6       1.0000 0.57329  0.79106  0.54202  Biso   1.000  O
  O7       1.0000 0.85998  0.74277  0.86913  Biso   1.000  O
  O8       1.0000 0.04191  0.86950  0.57437  Biso   1.000  O
  O9       1.0000 0.09629  0.43047  0.79089  Biso   1.000  O
  O10      1.0000 0.79287  0.23472  0.45037  Biso   1.000  O
  O11      1.0000 0.39845  0.07267  0.71775  Biso   1.000  O
  O12      1.0000 0.06422  0.13269  0.01899  Biso   1.000  O
