
#######################################################################
#
#                 Cambridge Crystallographic Data Centre
#                                CCDC 
#
#######################################################################
#
# If this CIF has been generated from an entry in the Cambridge 
# Structural Database, then it will include bibliographic, chemical, 
# crystal, experimental, refinement or atomic coordinate data resulting 
# from the CCDC's data processing and validation procedures.
#
#######################################################################

data_LTA-hse3c
_symmetry_cell_setting           triclinic
_symmetry_space_group_name_H-M   'P 1'
_symmetry_Int_Tables_number      1
_space_group_name_Hall           'P 1'
loop_
_symmetry_equiv_pos_site_id
_symmetry_equiv_pos_as_xyz
1 x,y,z
_cell_length_a                   9.41691423
_cell_length_b                   8.33488527
_cell_length_c                   8.15831879
_cell_angle_alpha                92.296541
_cell_angle_beta                 91.644347
_cell_angle_gamma                80.951572
_cell_volume                     631.698
loop_
_atom_site_label
_atom_site_type_symbol
_atom_site_fract_x
_atom_site_fract_y
_atom_site_fract_z
O1 O -0.1604154506659 0.1516869012252 0.4549283489241
H37 H -0.1194198230946 0.05174818872098 0.3993506574981
H44 H -0.1662075650308 0.1240636699161 0.5709844752852
O2 O 0.07309742983381 -0.1116046547479 -0.2592515698452
H38 H 0.01128407219639 -0.01087194863309 -0.2276987496721
H43 H 0.1366548999950 -0.08170150412800 -0.3405182430307
O3 O -0.09882852538798 -0.2439257789013 -0.4783235439973
H26 H -0.04248929354466 -0.1953618307115 -0.3906885936679
H63 H -0.02516934193274 -0.3133034491455 -0.5438444310368
O4 O 0.07560007321830 0.3001083785584 -0.4990786649161
H25 H -0.01662980989612 0.2645916197061 -0.5280264265729
H64 H 0.06161478155246 0.3505148372968 -0.3883081061613
O5 O 0.4278074744427 0.03557992510025 -0.04887749590534
H27 H 0.3983496063866 0.1129267180570 0.04150913442998
H45 H 0.4313353289700 0.1070123499426 -0.1415057197782
O6 O -0.2882612442043 -0.04736987675324 0.01357021535391
H28 H -0.3902539744663 -0.03238361441494 -0.02067809447282
H46 H -0.2909027552786 -0.05082842280757 0.1325901881340
O7 O 0.4217039769391 -0.2803783855034 -0.4452234309254
H47 H 0.3624525906638 -0.3404876632966 -0.3801967941709
H67 H 0.3625331492469 -0.1763391151202 -0.4677087103997
O8 O -0.4647165389495 0.1643375741693 0.4338057870273
H48 H -0.3735921434677 0.2024135720703 0.4196487627362
H68 H -0.4369529069206 0.04664565742939 0.4126228288267
O9 O 0.2906479191477 -0.4464413944350 -0.2329562384605
H53 H 0.3122131663429 -0.3813907793730 -0.1347578599232
H69 H 0.3558077987795 -0.5513498583338 -0.2350888120645
O10 O -0.2064680882725 0.4544251296199 0.1644480806379
H54 H -0.1703440856161 0.5513412268653 0.1295494227708
H70 H -0.2948129984959 0.4927483188180 0.2227936370129
O11 O 0.06320888816935 0.2407510980876 0.07760093198450
H30 H -0.02125318235393 0.2933996256888 0.1348953433250
H58 H 0.1480544859102 0.2605034016945 0.1414877531845
O12 O -0.08608126710839 -0.3081750649390 0.02599464856772
H29 H -0.04978787749427 -0.3722098633408 -0.07144184983722
H57 H -0.1689611924375 -0.2283412069993 -0.008366830608227
O13 O 0.2231658868542 -0.01535619338957 0.4711134503277
H31 H 0.1745714268890 -0.05257692022848 0.3734440565929
H40 H 0.1899449067053 0.1016774055692 0.4835165642498
O14 O -0.3319313186905 -0.1316915797824 0.3355276931929
H32 H -0.3788410211280 -0.2259446597003 0.3078085453687
H39 H -0.2478031099553 -0.1695608008182 0.4061488517878
O15 O -0.1598728139980 0.1179659374688 -0.2205988936818
H41 H -0.1997594625486 0.2321535149546 -0.1910960678935
H66 H -0.2056416801075 0.05450321705958 -0.1457761648285
O16 O 0.08734465702249 -0.08742715383854 0.1611338582881
H42 H 0.02299594871533 -0.1575895483345 0.1111215825884
H65 H 0.07034784165615 0.01567485036069 0.1060529191595
O17 O 0.04189172339102 0.4542348591386 -0.1975117856156
H55 H 0.05750219262297 0.3714054685783 -0.1153377718950
H60 H 0.1335098816673 0.4975446283467 -0.2070638718080
O18 O 0.1104094678918 -0.4256152356623 0.3467762521186
H56 H 0.06760570009525 -0.4295021037907 0.2387612433444
H59 H 0.1078562311565 -0.5319705392833 0.3930561300198
O19 O 0.3433667210699 0.2752227752455 0.1960598162802
H34 H 0.3678899352342 0.3818044885392 0.1828268493678
H61 H 0.4020520552647 0.2346199764342 0.2918120330765
O20 O -0.3125715731302 -0.3284422716446 -0.2794830356312
H33 H -0.2351428617154 -0.3174277392677 -0.3527275231620
H62 H -0.4034467845332 -0.2958590522370 -0.3383236383373
O21 O 0.4639008992296 0.2667988443016 -0.2531795644161
H35 H 0.5508312585946 0.3063061283043 -0.2069562210617
H50 H 0.4851217301960 0.2296994878667 -0.3668118594571
O22 O -0.4798509056590 -0.3975528709759 0.2644099990588
H36 H -0.5439687445347 -0.3443627302263 0.1787457114963
H49 H -0.5274250294123 -0.3689053306787 0.3701677932745
O23 O 0.3406490521323 -0.2489139825221 0.02880745305847
H52 H 0.3753388614561 -0.1561496752356 -0.01806014009890
H72 H 0.2488898198616 -0.1996282132980 0.07667871353424
O24 O -0.3107269107747 0.3972261767023 -0.1410985600380
H51 H -0.2825624108732 0.4146048219975 -0.02561512011855
H71 H -0.3066124811557 0.5007102386650 -0.1975293483948

#END
