data_LTA-hse3c
_cell_length_a       9.41691
_cell_length_b       8.33489
_cell_length_c       8.15832
_cell_angle_alpha    92.2965
_cell_angle_beta     91.6443
_cell_angle_gamma    80.9516

_symmetry_space_group_name_H-M    "P 1"
_symmetry_int_tables_number       1

loop_
  _symmetry_equiv_pos_as_xyz
  'x, y, z'

loop_
  _atom_site_label
  _atom_site_occupancy
  _atom_site_fract_x
  _atom_site_fract_y
  _atom_site_fract_z
  _atom_site_thermal_displace_type
  _atom_site_B_iso_or_equiv
  _atom_site_type_symbol
  H1       1.0000 0.83104  0.77166  0.99163  Biso   1.000  H
  H2       1.0000 0.14805  0.26050  0.14149  Biso   1.000  H
  H3       1.0000 0.95021  0.62779  0.92856  Biso   1.000  H
  H4       1.0000 0.71744  0.41460  0.97438  Biso   1.000  H
  H5       1.0000 0.17457  0.94742  0.37344  Biso   1.000  H
  H6       1.0000 0.18994  0.10168  0.48352  Biso   1.000  H
  H7       1.0000 0.62116  0.77406  0.30781  Biso   1.000  H
  H8       1.0000 0.75220  0.83044  0.40615  Biso   1.000  H
  H9       1.0000 0.80024  0.23215  0.80890  Biso   1.000  H
  H10      1.0000 0.79436  0.05450  0.85422  Biso   1.000  H
  H11      1.0000 0.02300  0.84241  0.11112  Biso   1.000  H
  H12      1.0000 0.07035  0.01567  0.10605  Biso   1.000  H
  H13      1.0000 0.05750  0.37141  0.88466  Biso   1.000  H
  H14      1.0000 0.13351  0.49754  0.79294  Biso   1.000  H
  H15      1.0000 0.06761  0.57050  0.23876  Biso   1.000  H
  H16      1.0000 0.10786  0.46803  0.39306  Biso   1.000  H
  H17      1.0000 0.36789  0.38180  0.18283  Biso   1.000  H
  H18      1.0000 0.40205  0.23462  0.29181  Biso   1.000  H
  H19      1.0000 0.76486  0.68257  0.64727  Biso   1.000  H
  H20      1.0000 0.59655  0.70414  0.66168  Biso   1.000  H
  H21      1.0000 0.55083  0.30631  0.79304  Biso   1.000  H
  H22      1.0000 0.48512  0.22970  0.63319  Biso   1.000  H
  H23      1.0000 0.45603  0.65564  0.17875  Biso   1.000  H
  H24      1.0000 0.47257  0.63109  0.37017  Biso   1.000  H
  H25      1.0000 0.37534  0.84385  0.98194  Biso   1.000  H
  H26      1.0000 0.24889  0.80037  0.07668  Biso   1.000  H
  H27      1.0000 0.97875  0.29340  0.13490  Biso   1.000  H
  H28      1.0000 0.70519  0.49275  0.22279  Biso   1.000  H
  H29      1.0000 0.69339  0.50071  0.80247  Biso   1.000  H
  H30      1.0000 0.39835  0.11293  0.04151  Biso   1.000  H
  H31      1.0000 0.06161  0.35051  0.61169  Biso   1.000  H
  H32      1.0000 0.97483  0.68670  0.45616  Biso   1.000  H
  H33      1.0000 0.82966  0.55134  0.12955  Biso   1.000  H
  H34      1.0000 0.43134  0.10701  0.85849  Biso   1.000  H
  H35      1.0000 0.95751  0.80464  0.60931  Biso   1.000  H
  H36      1.0000 0.60975  0.96762  0.97932  Biso   1.000  H
  H37      1.0000 0.70910  0.94917  0.13259  Biso   1.000  H
  H38      1.0000 0.13665  0.91830  0.65948  Biso   1.000  H
  H39      1.0000 0.36245  0.65951  0.61980  Biso   1.000  H
  H40      1.0000 0.36253  0.82366  0.53229  Biso   1.000  H
  H41      1.0000 0.98337  0.26459  0.47197  Biso   1.000  H
  H42      1.0000 0.62641  0.20241  0.41965  Biso   1.000  H
  H43      1.0000 0.56305  0.04665  0.41262  Biso   1.000  H
  H44      1.0000 0.83379  0.12406  0.57098  Biso   1.000  H
  H45      1.0000 0.88058  0.05175  0.39935  Biso   1.000  H
  H46      1.0000 0.31221  0.61861  0.86524  Biso   1.000  H
  H47      1.0000 0.35581  0.44865  0.76491  Biso   1.000  H
  H48      1.0000 0.01128  0.98913  0.77230  Biso   1.000  H
  O1       1.0000 0.07310  0.88840  0.74075  Biso   1.000  O
  O2       1.0000 0.07560  0.30011  0.50092  Biso   1.000  O
  O3       1.0000 0.34065  0.75109  0.02881  Biso   1.000  O
  O4       1.0000 0.90117  0.75607  0.52168  Biso   1.000  O
  O5       1.0000 0.46390  0.26680  0.74682  Biso   1.000  O
  O6       1.0000 0.68743  0.67156  0.72052  Biso   1.000  O
  O7       1.0000 0.68927  0.39723  0.85890  Biso   1.000  O
  O8       1.0000 0.52015  0.60245  0.26441  Biso   1.000  O
  O9       1.0000 0.79353  0.45443  0.16445  Biso   1.000  O
  O10      1.0000 0.42781  0.03558  0.95112  Biso   1.000  O
  O11      1.0000 0.11041  0.57438  0.34678  Biso   1.000  O
  O12      1.0000 0.04189  0.45423  0.80249  Biso   1.000  O
  O13      1.0000 0.71174  0.95263  0.01357  Biso   1.000  O
  O14      1.0000 0.08734  0.91257  0.16113  Biso   1.000  O
  O15      1.0000 0.42170  0.71962  0.55478  Biso   1.000  O
  O16      1.0000 0.84013  0.11797  0.77940  Biso   1.000  O
  O17      1.0000 0.66807  0.86831  0.33553  Biso   1.000  O
  O18      1.0000 0.53528  0.16434  0.43381  Biso   1.000  O
  O19      1.0000 0.22317  0.98464  0.47111  Biso   1.000  O
  O20      1.0000 0.29065  0.55356  0.76704  Biso   1.000  O
  O21      1.0000 0.91392  0.69182  0.02599  Biso   1.000  O
  O22      1.0000 0.06321  0.24075  0.07760  Biso   1.000  O
  O23      1.0000 0.34337  0.27522  0.19606  Biso   1.000  O
  O24      1.0000 0.83958  0.15169  0.45493  Biso   1.000  O
