data_IX-hse3c
_cell_length_a       6.51535
_cell_length_b       6.51535
_cell_length_c       6.88808
_cell_angle_alpha    90
_cell_angle_beta     90
_cell_angle_gamma    90

_symmetry_space_group_name_H-M    "P 1"
_symmetry_int_tables_number       1

loop_
  _symmetry_equiv_pos_as_xyz
  'x, y, z'

loop_
  _atom_site_label
  _atom_site_occupancy
  _atom_site_fract_x
  _atom_site_fract_y
  _atom_site_fract_z
  _atom_site_thermal_displace_type
  _atom_site_B_iso_or_equiv
  _atom_site_type_symbol
  H1       1.0000 0.61708  0.65911  0.28828  Biso   1.000  H
  H2       1.0000 0.19557  0.13601  0.60718  Biso   1.000  H
  H3       1.0000 0.80443  0.86399  0.10718  Biso   1.000  H
  H4       1.0000 0.86399  0.80443  0.89282  Biso   1.000  H
  H5       1.0000 0.13601  0.19557  0.39282  Biso   1.000  H
  H6       1.0000 0.30443  0.63601  0.64282  Biso   1.000  H
  H7       1.0000 0.69557  0.36399  0.14282  Biso   1.000  H
  H8       1.0000 0.65911  0.61708  0.71172  Biso   1.000  H
  H9       1.0000 0.34089  0.38292  0.21172  Biso   1.000  H
  H10      1.0000 0.88292  0.15911  0.96172  Biso   1.000  H
  H11      1.0000 0.11708  0.84089  0.46172  Biso   1.000  H
  H12      1.0000 0.84089  0.11708  0.53828  Biso   1.000  H
  H13      1.0000 0.15911  0.88292  0.03828  Biso   1.000  H
  H14      1.0000 0.36399  0.69557  0.85718  Biso   1.000  H
  H15      1.0000 0.38292  0.34089  0.78828  Biso   1.000  H
  H16      1.0000 0.63601  0.30443  0.35718  Biso   1.000  H
  H17      1.0000 0.15894  0.50935  0.30058  Biso   1.000  H
  H18      1.0000 0.00935  0.34106  0.05058  Biso   1.000  H
  H19      1.0000 0.99065  0.65894  0.55058  Biso   1.000  H
  H20      1.0000 0.65894  0.99065  0.44942  Biso   1.000  H
  H21      1.0000 0.34106  0.00935  0.94942  Biso   1.000  H
  H22      1.0000 0.49065  0.84106  0.19942  Biso   1.000  H
  H23      1.0000 0.50935  0.15894  0.69942  Biso   1.000  H
  H24      1.0000 0.84106  0.49065  0.80058  Biso   1.000  H
  O1       1.0000 0.61525  0.80961  0.27473  Biso   1.000  O
  O2       1.0000 0.30961  0.88475  0.02473  Biso   1.000  O
  O3       1.0000 0.69039  0.11525  0.52473  Biso   1.000  O
  O4       1.0000 0.11525  0.69039  0.47527  Biso   1.000  O
  O5       1.0000 0.88475  0.30961  0.97527  Biso   1.000  O
  O6       1.0000 0.39855  0.60145  0.75000  Biso   1.000  O
  O7       1.0000 0.89855  0.89855  0.00000  Biso   1.000  O
  O8       1.0000 0.10145  0.10145  0.50000  Biso   1.000  O
  O9       1.0000 0.60145  0.39855  0.25000  Biso   1.000  O
  O10      1.0000 0.80961  0.61525  0.72527  Biso   1.000  O
  O11      1.0000 0.19039  0.38475  0.22527  Biso   1.000  O
  O12      1.0000 0.38475  0.19039  0.77473  Biso   1.000  O
