data_207_1_4435-hse3c
_cell_length_a       7.61608
_cell_length_b       7.61608
_cell_length_c       7.61608
_cell_angle_alpha    90
_cell_angle_beta     90
_cell_angle_gamma    90

_symmetry_space_group_name_H-M    "P 1"
_symmetry_int_tables_number       1

loop_
  _symmetry_equiv_pos_as_xyz
  'x, y, z'

loop_
  _atom_site_label
  _atom_site_occupancy
  _atom_site_fract_x
  _atom_site_fract_y
  _atom_site_fract_z
  _atom_site_thermal_displace_type
  _atom_site_B_iso_or_equiv
  _atom_site_type_symbol
  H1       1.0000 0.39741  0.00000  0.66624  Biso   1.000  H
  H2       1.0000 0.33376  0.39741  0.00000  Biso   1.000  H
  H3       1.0000 0.66624  0.39741  0.00000  Biso   1.000  H
  H4       1.0000 0.33376  0.60259  0.00000  Biso   1.000  H
  H5       1.0000 0.66624  0.60259  0.00000  Biso   1.000  H
  H6       1.0000 0.50000  0.83376  0.89741  Biso   1.000  H
  H7       1.0000 0.50000  0.16624  0.89741  Biso   1.000  H
  H8       1.0000 0.60259  0.00000  0.66624  Biso   1.000  H
  H9       1.0000 0.50000  0.83376  0.10259  Biso   1.000  H
  H10      1.0000 0.89741  0.50000  0.83376  Biso   1.000  H
  H11      1.0000 0.89741  0.50000  0.16624  Biso   1.000  H
  H12      1.0000 0.10259  0.50000  0.83376  Biso   1.000  H
  H13      1.0000 0.10259  0.50000  0.16624  Biso   1.000  H
  H14      1.0000 0.83376  0.89741  0.50000  Biso   1.000  H
  H15      1.0000 0.16624  0.89741  0.50000  Biso   1.000  H
  H16      1.0000 0.50000  0.16624  0.10259  Biso   1.000  H
  H17      1.0000 0.60259  0.00000  0.33376  Biso   1.000  H
  H18      1.0000 0.16624  0.10259  0.50000  Biso   1.000  H
  H19      1.0000 0.39741  0.00000  0.33376  Biso   1.000  H
  H20      1.0000 0.00000  0.66624  0.60259  Biso   1.000  H
  H21      1.0000 0.00000  0.33376  0.60259  Biso   1.000  H
  H22      1.0000 0.00000  0.66624  0.39741  Biso   1.000  H
  H23      1.0000 0.00000  0.33376  0.39741  Biso   1.000  H
  H24      1.0000 0.83376  0.10259  0.50000  Biso   1.000  H
  O1       1.0000 0.00000  0.74513  0.50000  Biso   1.000  O
  O2       1.0000 0.50000  0.00000  0.25487  Biso   1.000  O
  O3       1.0000 0.50000  0.00000  0.74513  Biso   1.000  O
  O4       1.0000 0.25487  0.50000  0.00000  Biso   1.000  O
  O5       1.0000 0.74513  0.50000  0.00000  Biso   1.000  O
  O6       1.0000 0.00000  0.50000  0.75487  Biso   1.000  O
  O7       1.0000 0.50000  0.24513  0.00000  Biso   1.000  O
  O8       1.0000 0.00000  0.50000  0.24513  Biso   1.000  O
  O9       1.0000 0.75487  0.00000  0.50000  Biso   1.000  O
  O10      1.0000 0.24513  0.00000  0.50000  Biso   1.000  O
  O11      1.0000 0.50000  0.75487  0.00000  Biso   1.000  O
  O12      1.0000 0.00000  0.25487  0.50000  Biso   1.000  O
