
#######################################################################
#
#                 Cambridge Crystallographic Data Centre
#                                CCDC 
#
#######################################################################
#
# If this CIF has been generated from an entry in the Cambridge 
# Structural Database, then it will include bibliographic, chemical, 
# crystal, experimental, refinement or atomic coordinate data resulting 
# from the CCDC's data processing and validation procedures.
#
#######################################################################

data_11_2_15848-hse3c
_symmetry_cell_setting           triclinic
_symmetry_space_group_name_H-M   'P 1'
_symmetry_Int_Tables_number      1
_space_group_name_Hall           'P 1'
loop_
_symmetry_equiv_pos_site_id
_symmetry_equiv_pos_as_xyz
1 x,y,z
_cell_length_a                   6.18979005
_cell_length_b                   6.36246839
_cell_length_c                   6.22673363
_cell_angle_alpha                105.310070
_cell_angle_beta                 63.012694
_cell_angle_gamma                73.358510
_cell_volume                     185.741
loop_
_atom_site_label
_atom_site_type_symbol
_atom_site_fract_x
_atom_site_fract_y
_atom_site_fract_z
O1 O -0.2905264930770 0.05143438695633 0.09759845527879
H13 H -0.1107437350146 -0.01668430601292 -0.07245936258336
H18 H -0.2480263660495 0.02195234962122 0.2249714063935
O2 O 0.3725403291163 -0.09410564517707 0.02212506394272
H9 H 0.4942286385600 -0.04090513435421 0.05485786142052
H14 H 0.1945579492694 -0.01914377020257 0.1961065495785
O3 O -0.3217121226985 -0.4846727489142 0.2445678547602
H10 H -0.4992685439085 -0.3354545571302 0.3871616663483
H11 H -0.3519591698341 -0.6291462705198 0.2148879885931
O4 O 0.4275597456552 0.4405079741570 -0.1227127197726
H12 H 0.4399989373164 0.5948784393190 -0.08798582522276
H16 H 0.3117964606037 0.4553802456955 0.05839398209942
O5 O 0.2316013733641 -0.07090761703276 -0.3229745601550
H17 H 0.2977040929651 -0.06346751830546 -0.2054059878107
H23 H 0.1911914174204 0.08558908445495 -0.3326824991712
O6 O -0.1379961133389 0.02008798214040 0.4330242223808
H21 H -0.2823651720262 0.1651723907829 0.6102390530383
H24 H -0.09785643413370 -0.1300993244585 0.4560616822900
O7 O 0.07713722612395 0.4030782722096 -0.2665349889035
H15 H -0.09133573547689 0.4721083010308 -0.08492702032024
H19 H 0.2083359153130 0.4328330150899 -0.2323959054605
O8 O 0.02232510661991 -0.4400709767787 0.3878322076152
H20 H -0.1055171493596 -0.4799588605864 0.3560267449035
H22 H 0.03634984259013 -0.4960657119847 0.5159241307570

#END
