data_PCOD8047931-hse3c
_cell_length_a       6.31282
_cell_length_b       7.21096
_cell_length_c       8.94129
_cell_angle_alpha    90
_cell_angle_beta     99.6912
_cell_angle_gamma    90

_symmetry_space_group_name_H-M    "P 1"
_symmetry_int_tables_number       1

loop_
  _symmetry_equiv_pos_as_xyz
  'x, y, z'

loop_
  _atom_site_label
  _atom_site_occupancy
  _atom_site_fract_x
  _atom_site_fract_y
  _atom_site_fract_z
  _atom_site_thermal_displace_type
  _atom_site_B_iso_or_equiv
  _atom_site_type_symbol
  H1       1.0000 0.65400  0.42339  0.89350  Biso   1.000  H
  H2       1.0000 0.34600  0.92339  0.10650  Biso   1.000  H
  H3       1.0000 0.00199  0.14822  0.16056  Biso   1.000  H
  H4       1.0000 0.48388  0.04306  0.66013  Biso   1.000  H
  H5       1.0000 0.51612  0.54306  0.33987  Biso   1.000  H
  H6       1.0000 0.38215  0.22756  0.58883  Biso   1.000  H
  H7       1.0000 0.61785  0.72756  0.41117  Biso   1.000  H
  H8       1.0000 0.03756  0.73203  0.34105  Biso   1.000  H
  H9       1.0000 0.84239  0.39187  0.02297  Biso   1.000  H
  H10      1.0000 0.96244  0.23203  0.65895  Biso   1.000  H
  H11      1.0000 0.92225  0.29575  0.81814  Biso   1.000  H
  H12      1.0000 0.56569  0.04277  0.44277  Biso   1.000  H
  H13      1.0000 0.43431  0.54277  0.55723  Biso   1.000  H
  H14      1.0000 0.69033  0.04547  0.30194  Biso   1.000  H
  H15      1.0000 0.30967  0.54547  0.69806  Biso   1.000  H
  H16      1.0000 0.92538  0.27944  0.28094  Biso   1.000  H
  H17      1.0000 0.07462  0.77944  0.71906  Biso   1.000  H
  H18      1.0000 0.07775  0.79575  0.18186  Biso   1.000  H
  H19      1.0000 0.15761  0.89187  0.97703  Biso   1.000  H
  H20      1.0000 0.99801  0.64822  0.83944  Biso   1.000  H
  H21      1.0000 0.16968  0.95319  0.53439  Biso   1.000  H
  H22      1.0000 0.26277  0.23282  0.86211  Biso   1.000  H
  H23      1.0000 0.73723  0.73282  0.13789  Biso   1.000  H
  H24      1.0000 0.38276  0.30039  0.01929  Biso   1.000  H
  H25      1.0000 0.83032  0.45319  0.46561  Biso   1.000  H
  H26      1.0000 0.42654  0.57541  0.11676  Biso   1.000  H
  H27      1.0000 0.61724  0.80039  0.98071  Biso   1.000  H
  H28      1.0000 0.77750  0.02893  0.81306  Biso   1.000  H
  H29      1.0000 0.08019  0.42213  0.50856  Biso   1.000  H
  H30      1.0000 0.91981  0.92213  0.49144  Biso   1.000  H
  H31      1.0000 0.57346  0.07541  0.88324  Biso   1.000  H
  H32      1.0000 0.22250  0.52893  0.18694  Biso   1.000  H
  O1       1.0000 0.88421  0.22543  0.17967  Biso   1.000  O
  O2       1.0000 0.11579  0.72543  0.82033  Biso   1.000  O
  O3       1.0000 0.63897  0.97875  0.82819  Biso   1.000  O
  O4       1.0000 0.94356  0.35909  0.47311  Biso   1.000  O
  O5       1.0000 0.33618  0.47360  0.61179  Biso   1.000  O
  O6       1.0000 0.19308  0.94651  0.07870  Biso   1.000  O
  O7       1.0000 0.05644  0.85909  0.52689  Biso   1.000  O
  O8       1.0000 0.80692  0.44651  0.92130  Biso   1.000  O
  O9       1.0000 0.98637  0.19536  0.76550  Biso   1.000  O
  O10      1.0000 0.01363  0.69536  0.23450  Biso   1.000  O
  O11      1.0000 0.59440  0.75806  0.08001  Biso   1.000  O
  O12      1.0000 0.40560  0.25806  0.91999  Biso   1.000  O
  O13      1.0000 0.59765  0.59677  0.43378  Biso   1.000  O
  O14      1.0000 0.40235  0.09677  0.56622  Biso   1.000  O
  O15      1.0000 0.66382  0.97360  0.38821  Biso   1.000  O
  O16      1.0000 0.36103  0.47875  0.17181  Biso   1.000  O
