
#######################################################################
#
#                 Cambridge Crystallographic Data Centre
#                                CCDC 
#
#######################################################################
#
# If this CIF has been generated from an entry in the Cambridge 
# Structural Database, then it will include bibliographic, chemical, 
# crystal, experimental, refinement or atomic coordinate data resulting 
# from the CCDC's data processing and validation procedures.
#
#######################################################################

data_PCOD8047931-hse3c
_symmetry_cell_setting           monoclinic
_symmetry_space_group_name_H-M   'P 21'
_symmetry_Int_Tables_number      4
_space_group_name_Hall           'P 2yb'
loop_
_symmetry_equiv_pos_site_id
_symmetry_equiv_pos_as_xyz
1 x,y,z
2 -x,1/2+y,-z
_cell_length_a                   6.31281616
_cell_length_b                   7.21095592
_cell_length_c                   8.94128532
_cell_angle_alpha                90.000000
_cell_angle_beta                 99.691233
_cell_angle_gamma                90.000000
_cell_volume                     401.212
loop_
_atom_site_label
_atom_site_type_symbol
_atom_site_fract_x
_atom_site_fract_y
_atom_site_fract_z
O1 O 0.3610298807191 0.4787452054688 0.1718104837857
H9 H 0.4265430042324 0.5754139284386 0.1167583343693
H10 H 0.2225002855666 0.5289341984973 0.1869382395512
O2 O -0.05644454105525 0.3590893262066 0.4731116107216
H11 H -0.1696844398506 0.4531863851084 0.4656140808671
H12 H 0.08018706037602 0.4221298424827 0.5085551199935
O3 O -0.4055974793869 -0.2419433329365 0.08000859411221
H13 H -0.3827567853070 -0.1996069660317 -0.01929429865153
H14 H -0.2627710122679 -0.2671843325529 0.1378886105975
O4 O 0.1930833602368 -0.05348817089737 0.07870126897933
H15 H 0.1576093375424 -0.1081292300751 -0.02296569033682
H16 H 0.3460044681971 -0.07661451172197 0.1065023946355
O5 O 0.4023452165882 0.09677384856422 -0.4337759618248
H17 H 0.4838825214325 0.04305633129922 -0.3398668839610
H18 H 0.3821518197552 0.2275618830941 -0.4111731961751
O6 O 0.01362763051010 -0.3046433642317 0.2344957497745
H19 H 0.03756387912627 -0.2679719839484 0.3410521267158
H20 H 0.07774550763126 -0.2042504748185 0.1818643783346
O7 O -0.3361812010272 -0.02640134660075 0.3882100297436
H21 H -0.4343053907272 0.04277223083321 0.4427660832554
H22 H -0.3096683811250 0.04547297569713 0.3019438030331
O8 O -0.1157946561797 0.2254287299437 0.1796669982405
H23 H -0.07461799259303 0.2794416433726 0.2809373394689
H24 H 0.001994986212363 0.1482171848081 0.1605643596858

#END
