
#######################################################################
#
#                 Cambridge Crystallographic Data Centre
#                                CCDC 
#
#######################################################################
#
# If this CIF has been generated from an entry in the Cambridge 
# Structural Database, then it will include bibliographic, chemical, 
# crystal, experimental, refinement or atomic coordinate data resulting 
# from the CCDC's data processing and validation procedures.
#
#######################################################################

data_ACO-hse3c
_symmetry_cell_setting           orthorhombic
_symmetry_space_group_name_H-M   'P 21 21 2'
_symmetry_Int_Tables_number      18
_space_group_name_Hall           'P 2 2ab'
loop_
_symmetry_equiv_pos_site_id
_symmetry_equiv_pos_as_xyz
1 x,y,z
2 -x,-y,z
3 1/2-x,1/2+y,-z
4 1/2+x,1/2-y,-z
_cell_length_a                   8.51534426
_cell_length_b                   8.56445977
_cell_length_c                   8.46453221
_cell_angle_alpha                90.000000
_cell_angle_beta                 90.000000
_cell_angle_gamma                90.000000
_cell_volume                     617.313
loop_
_atom_site_label
_atom_site_type_symbol
_atom_site_fract_x
_atom_site_fract_y
_atom_site_fract_z
O1 O -0.1494538584815 -0.3347552372128 -0.08276459449773
H5 H -0.03470446519235 -0.3258938126430 -0.07069310463807
H6 H -0.1704728568119 -0.4471450628463 -0.06984086528907
O2 O 0.1567996638768 0.3340422141843 -0.4082476705282
H7 H 0.1666306453566 0.3186729027322 -0.2937682246957
H8 H 0.1745904775129 0.4467240872809 -0.4229526556115
O3 O -0.1689556396978 0.3501328060122 -0.4087331789833
H9 H -0.2315635214299 0.2821092904476 -0.4787132112577
H10 H -0.05786464780144 0.3272098389001 -0.4261238897786
O4 O 0.1670926591690 -0.3506981116318 -0.08745398886357
H11 H 0.2381666828442 -0.2819295101516 -0.02691837488099
H12 H 0.1861280067955 -0.3346797470205 -0.2005074940087

#END
