data_ACO-hse3c
_cell_length_a       8.51534
_cell_length_b       8.56446
_cell_length_c       8.46453
_cell_angle_alpha    90
_cell_angle_beta     90
_cell_angle_gamma    90

_symmetry_space_group_name_H-M    "P 1"
_symmetry_int_tables_number       1

loop_
  _symmetry_equiv_pos_as_xyz
  'x, y, z'

loop_
  _atom_site_label
  _atom_site_occupancy
  _atom_site_fract_x
  _atom_site_fract_y
  _atom_site_fract_z
  _atom_site_thermal_displace_type
  _atom_site_B_iso_or_equiv
  _atom_site_type_symbol
  H1       1.0000 0.67459  0.05328  0.42295  Biso   1.000  H
  H2       1.0000 0.32541  0.94672  0.42295  Biso   1.000  H
  H3       1.0000 0.31387  0.16532  0.20051  Biso   1.000  H
  H4       1.0000 0.76844  0.28211  0.52129  Biso   1.000  H
  H5       1.0000 0.23156  0.71789  0.52129  Biso   1.000  H
  H6       1.0000 0.73156  0.78211  0.47871  Biso   1.000  H
  H7       1.0000 0.26844  0.21789  0.47871  Biso   1.000  H
  H8       1.0000 0.94214  0.32721  0.57388  Biso   1.000  H
  H9       1.0000 0.82541  0.55328  0.57705  Biso   1.000  H
  H10      1.0000 0.05786  0.67279  0.57388  Biso   1.000  H
  H11      1.0000 0.44214  0.17279  0.42612  Biso   1.000  H
  H12      1.0000 0.23817  0.71807  0.97308  Biso   1.000  H
  H13      1.0000 0.76183  0.28193  0.97308  Biso   1.000  H
  H14      1.0000 0.26183  0.21807  0.02692  Biso   1.000  H
  H15      1.0000 0.73817  0.78193  0.02692  Biso   1.000  H
  H16      1.0000 0.18613  0.66532  0.79949  Biso   1.000  H
  H17      1.0000 0.81387  0.33468  0.79949  Biso   1.000  H
  H18      1.0000 0.55786  0.82721  0.42612  Biso   1.000  H
  H19      1.0000 0.17459  0.44672  0.57705  Biso   1.000  H
  H20      1.0000 0.68613  0.83468  0.20051  Biso   1.000  H
  H21      1.0000 0.33337  0.81867  0.29377  Biso   1.000  H
  H22      1.0000 0.96530  0.67411  0.92931  Biso   1.000  H
  H23      1.0000 0.03470  0.32589  0.92931  Biso   1.000  H
  H24      1.0000 0.53470  0.17411  0.07069  Biso   1.000  H
  H25      1.0000 0.46530  0.82589  0.07069  Biso   1.000  H
  H26      1.0000 0.82953  0.55285  0.93016  Biso   1.000  H
  H27      1.0000 0.66663  0.18133  0.29377  Biso   1.000  H
  H28      1.0000 0.67047  0.05285  0.06984  Biso   1.000  H
  H29      1.0000 0.32953  0.94715  0.06984  Biso   1.000  H
  H30      1.0000 0.17047  0.44715  0.93016  Biso   1.000  H
  H31      1.0000 0.83337  0.68133  0.70623  Biso   1.000  H
  H32      1.0000 0.16663  0.31867  0.70623  Biso   1.000  H
  O1       1.0000 0.15680  0.33404  0.59175  Biso   1.000  O
  O2       1.0000 0.14945  0.33476  0.91724  Biso   1.000  O
  O3       1.0000 0.64945  0.16524  0.08276  Biso   1.000  O
  O4       1.0000 0.35055  0.83476  0.08276  Biso   1.000  O
  O5       1.0000 0.65680  0.16596  0.40825  Biso   1.000  O
  O6       1.0000 0.66709  0.85070  0.08745  Biso   1.000  O
  O7       1.0000 0.33291  0.14930  0.08745  Biso   1.000  O
  O8       1.0000 0.83291  0.35070  0.91255  Biso   1.000  O
  O9       1.0000 0.16709  0.64930  0.91255  Biso   1.000  O
  O10      1.0000 0.83104  0.35013  0.59127  Biso   1.000  O
  O11      1.0000 0.16896  0.64987  0.59127  Biso   1.000  O
  O12      1.0000 0.66896  0.85013  0.40873  Biso   1.000  O
  O13      1.0000 0.33104  0.14987  0.40873  Biso   1.000  O
  O14      1.0000 0.34320  0.83404  0.40825  Biso   1.000  O
  O15      1.0000 0.84320  0.66596  0.59175  Biso   1.000  O
  O16      1.0000 0.85055  0.66524  0.91724  Biso   1.000  O
