data_II-hse3c
_cell_length_a       12.7361
_cell_length_b       12.7361
_cell_length_c       6.2393
_cell_angle_alpha    90
_cell_angle_beta     90
_cell_angle_gamma    120

_symmetry_space_group_name_H-M    "P 1"
_symmetry_int_tables_number       1

loop_
  _symmetry_equiv_pos_as_xyz
  'x, y, z'

loop_
  _atom_site_label
  _atom_site_occupancy
  _atom_site_fract_x
  _atom_site_fract_y
  _atom_site_fract_z
  _atom_site_thermal_displace_type
  _atom_site_B_iso_or_equiv
  _atom_site_type_symbol
  H1       1.0000 0.10884  0.65446  0.47062  Biso   1.000  H
  H2       1.0000 0.76998  0.22588  0.81170  Biso   1.000  H
  H3       1.0000 0.45590  0.23002  0.81170  Biso   1.000  H
  H4       1.0000 0.55922  0.12257  0.85496  Biso   1.000  H
  H5       1.0000 0.56335  0.44078  0.85496  Biso   1.000  H
  H6       1.0000 0.87743  0.43665  0.85496  Biso   1.000  H
  H7       1.0000 0.10745  0.21076  0.47837  Biso   1.000  H
  H8       1.0000 0.10331  0.89255  0.47837  Biso   1.000  H
  H9       1.0000 0.78924  0.89669  0.47837  Biso   1.000  H
  H10      1.0000 0.77412  0.54410  0.81170  Biso   1.000  H
  H11      1.0000 0.89255  0.78924  0.52163  Biso   1.000  H
  H12      1.0000 0.21076  0.10331  0.52163  Biso   1.000  H
  H13      1.0000 0.56898  0.59985  0.21834  Biso   1.000  H
  H14      1.0000 0.54562  0.89116  0.47062  Biso   1.000  H
  H15      1.0000 0.34554  0.45438  0.47062  Biso   1.000  H
  H16      1.0000 0.55783  0.67888  0.86272  Biso   1.000  H
  H17      1.0000 0.12104  0.44217  0.86272  Biso   1.000  H
  H18      1.0000 0.32112  0.87896  0.86272  Biso   1.000  H
  H19      1.0000 0.44217  0.32112  0.13728  Biso   1.000  H
  H20      1.0000 0.89669  0.10745  0.52163  Biso   1.000  H
  H21      1.0000 0.54410  0.76998  0.18830  Biso   1.000  H
  H22      1.0000 0.23002  0.77412  0.18830  Biso   1.000  H
  H23      1.0000 0.22588  0.45590  0.18830  Biso   1.000  H
  H24      1.0000 0.03087  0.43102  0.21834  Biso   1.000  H
  H25      1.0000 0.26652  0.36421  0.11499  Biso   1.000  H
  H26      1.0000 0.09769  0.73348  0.11499  Biso   1.000  H
  H27      1.0000 0.63579  0.90231  0.11499  Biso   1.000  H
  H28      1.0000 0.73348  0.63579  0.88501  Biso   1.000  H
  H29      1.0000 0.90231  0.26652  0.88501  Biso   1.000  H
  H30      1.0000 0.36421  0.09769  0.88501  Biso   1.000  H
  H31      1.0000 0.59985  0.03087  0.78166  Biso   1.000  H
  H32      1.0000 0.43102  0.40015  0.78166  Biso   1.000  H
  H33      1.0000 0.96913  0.56898  0.78166  Biso   1.000  H
  H34      1.0000 0.06682  0.30246  0.55168  Biso   1.000  H
  H35      1.0000 0.23564  0.93318  0.55168  Biso   1.000  H
  H36      1.0000 0.69754  0.76436  0.55168  Biso   1.000  H
  H37      1.0000 0.93318  0.69754  0.44832  Biso   1.000  H
  H38      1.0000 0.76436  0.06682  0.44832  Biso   1.000  H
  H39      1.0000 0.30246  0.23564  0.44832  Biso   1.000  H
  H40      1.0000 0.44078  0.87743  0.14504  Biso   1.000  H
  H41      1.0000 0.43665  0.55922  0.14504  Biso   1.000  H
  H42      1.0000 0.12257  0.56335  0.14504  Biso   1.000  H
  H43      1.0000 0.87896  0.55783  0.13728  Biso   1.000  H
  H44      1.0000 0.67888  0.12104  0.13728  Biso   1.000  H
  H45      1.0000 0.40015  0.96913  0.21834  Biso   1.000  H
  H46      1.0000 0.45438  0.10884  0.52938  Biso   1.000  H
  H47      1.0000 0.48548  0.62125  0.65674  Biso   1.000  H
  H48      1.0000 0.13577  0.51452  0.65674  Biso   1.000  H
  H49      1.0000 0.89116  0.34554  0.52938  Biso   1.000  H
  H50      1.0000 0.51452  0.37875  0.34326  Biso   1.000  H
  H51      1.0000 0.86423  0.48548  0.34326  Biso   1.000  H
  H52      1.0000 0.62125  0.13577  0.34326  Biso   1.000  H
  H53      1.0000 0.81881  0.28791  0.32341  Biso   1.000  H
  H54      1.0000 0.46910  0.18119  0.32341  Biso   1.000  H
  H55      1.0000 0.71209  0.53090  0.32341  Biso   1.000  H
  H56      1.0000 0.84785  0.04542  0.00992  Biso   1.000  H
  H57      1.0000 0.19757  0.15215  0.00992  Biso   1.000  H
  H58      1.0000 0.95458  0.80243  0.00992  Biso   1.000  H
  H59      1.0000 0.15215  0.95458  0.99008  Biso   1.000  H
  H60      1.0000 0.80243  0.84785  0.99008  Biso   1.000  H
  H61      1.0000 0.04542  0.19757  0.99008  Biso   1.000  H
  H62      1.0000 0.28791  0.46910  0.67659  Biso   1.000  H
  H63      1.0000 0.53090  0.81881  0.67659  Biso   1.000  H
  H64      1.0000 0.37875  0.86423  0.65674  Biso   1.000  H
  H65      1.0000 0.01221  0.78771  0.80395  Biso   1.000  H
  H66      1.0000 0.21229  0.22450  0.80395  Biso   1.000  H
  H67      1.0000 0.22450  0.01221  0.19605  Biso   1.000  H
  H68      1.0000 0.78771  0.77550  0.19605  Biso   1.000  H
  H69      1.0000 0.98779  0.21229  0.19605  Biso   1.000  H
  H70      1.0000 0.18119  0.71209  0.67659  Biso   1.000  H
  H71      1.0000 0.77550  0.98779  0.80395  Biso   1.000  H
  H72      1.0000 0.65446  0.54562  0.52938  Biso   1.000  H
  O1       1.0000 0.88768  0.36354  0.37813  Biso   1.000  O
  O2       1.0000 0.80920  0.77899  0.04480  Biso   1.000  O
  O3       1.0000 0.11232  0.63646  0.62187  Biso   1.000  O
  O4       1.0000 0.22101  0.03021  0.04480  Biso   1.000  O
  O5       1.0000 0.03021  0.80920  0.95520  Biso   1.000  O
  O6       1.0000 0.19080  0.22101  0.95520  Biso   1.000  O
  O7       1.0000 0.77899  0.96979  0.95520  Biso   1.000  O
  O8       1.0000 0.47586  0.11232  0.37813  Biso   1.000  O
  O9       1.0000 0.52414  0.88768  0.62187  Biso   1.000  O
  O10      1.0000 0.55435  0.69688  0.71147  Biso   1.000  O
  O11      1.0000 0.14253  0.44565  0.71147  Biso   1.000  O
  O12      1.0000 0.63646  0.52414  0.37813  Biso   1.000  O
  O13      1.0000 0.44565  0.30312  0.28853  Biso   1.000  O
  O14      1.0000 0.85747  0.55435  0.28853  Biso   1.000  O
  O15      1.0000 0.69688  0.14253  0.28853  Biso   1.000  O
  O16      1.0000 0.36354  0.47586  0.62187  Biso   1.000  O
  O17      1.0000 0.30312  0.85747  0.71147  Biso   1.000  O
  O18      1.0000 0.85413  0.29327  0.80463  Biso   1.000  O
  O19      1.0000 0.22753  0.18746  0.52870  Biso   1.000  O
  O20      1.0000 0.70673  0.56086  0.80463  Biso   1.000  O
  O21      1.0000 0.56086  0.85413  0.19537  Biso   1.000  O
  O22      1.0000 0.14587  0.70673  0.19537  Biso   1.000  O
  O23      1.0000 0.29327  0.43914  0.19537  Biso   1.000  O
  O24      1.0000 0.10581  0.47921  0.13797  Biso   1.000  O
  O25      1.0000 0.52079  0.62660  0.13797  Biso   1.000  O
  O26      1.0000 0.37340  0.89419  0.13797  Biso   1.000  O
  O27      1.0000 0.62660  0.10581  0.86203  Biso   1.000  O
  O28      1.0000 0.47921  0.37340  0.86203  Biso   1.000  O
  O29      1.0000 0.89419  0.52079  0.86203  Biso   1.000  O
  O30      1.0000 0.04007  0.22753  0.47130  Biso   1.000  O
  O31      1.0000 0.18746  0.95993  0.47130  Biso   1.000  O
  O32      1.0000 0.77247  0.81254  0.47130  Biso   1.000  O
  O33      1.0000 0.95993  0.77247  0.52870  Biso   1.000  O
  O34      1.0000 0.81254  0.04007  0.52870  Biso   1.000  O
  O35      1.0000 0.43914  0.14587  0.80463  Biso   1.000  O
  O36      1.0000 0.96979  0.19080  0.04480  Biso   1.000  O
