
#######################################################################
#
#                 Cambridge Crystallographic Data Centre
#                                CCDC 
#
#######################################################################
#
# If this CIF has been generated from an entry in the Cambridge 
# Structural Database, then it will include bibliographic, chemical, 
# crystal, experimental, refinement or atomic coordinate data resulting 
# from the CCDC's data processing and validation procedures.
#
#######################################################################

data_XIII-hse3c
_symmetry_cell_setting           monoclinic
_symmetry_space_group_name_H-M   'P 21/c'
_symmetry_Int_Tables_number      14
_space_group_name_Hall           '-P 2ybc'
loop_
_symmetry_equiv_pos_site_id
_symmetry_equiv_pos_as_xyz
1 x,y,z
2 -x,1/2+y,1/2-z
3 -x,-y,-z
4 x,1/2-y,1/2+z
_cell_length_a                   10.08505293
_cell_length_b                   7.44443084
_cell_length_c                   9.03245893
_cell_angle_alpha                90.000000
_cell_angle_beta                 108.750390
_cell_angle_gamma                90.000000
_cell_volume                     642.144
loop_
_atom_site_label
_atom_site_type_symbol
_atom_site_fract_x
_atom_site_fract_y
_atom_site_fract_z
O1 O 0.2455381555967 0.4355539842602 -0.2590603954167
H8 H 0.2034049482581 0.3506666583304 -0.3447739753003
H9 H 0.1655715126704 0.5059702817692 -0.2519738350426
O2 O 0.09767576241623 0.1919625117392 -0.4656938225564
H10 H 0.1495100687894 0.08387414207539 -0.4741197142715
H11 H 0.05555855861864 0.2456898545790 -0.5695227395973
O3 O -0.4045719252663 -0.3088303436116 -0.4492564668412
H12 H -0.3400274478667 -0.2179183520976 -0.3874427028102
H13 H -0.4526792835112 -0.2499989024824 -0.5491823150583
O4 O -0.001680150450751 -0.4012248236962 -0.2758429278466
H14 H -0.01648790437709 -0.3587585369194 -0.1798370867121
H15 H -0.07711779627805 -0.4895449635738 -0.3184464707722
O5 O -0.4969871388006 0.09536991404636 -0.2923949498526
H16 H -0.4025237226978 0.04368890406352 -0.2645207337071
H17 H -0.5130532909517 0.1326722194034 -0.1957592963848
O6 O -0.2684181592504 0.3863432734807 -0.08848903180049
H18 H -0.2513889255344 0.3595583165019 -0.1868421663596
H19 H -0.3600229213631 0.4459836597098 -0.1217694853311
O7 O -0.2343629979860 0.3928652049154 -0.3823515414630
H20 H -0.3027600091302 0.4874397337343 -0.4274695193126
H21 H -0.2486301902838 0.2956557958814 -0.4593180403679

#END
