data_XIII-hse3c
_cell_length_a       10.0851
_cell_length_b       7.44443
_cell_length_c       9.03246
_cell_angle_alpha    90
_cell_angle_beta     108.75
_cell_angle_gamma    90

_symmetry_space_group_name_H-M    "P 1"
_symmetry_int_tables_number       1

loop_
  _symmetry_equiv_pos_as_xyz
  'x, y, z'

loop_
  _atom_site_label
  _atom_site_occupancy
  _atom_site_fract_x
  _atom_site_fract_y
  _atom_site_fract_z
  _atom_site_thermal_displace_type
  _atom_site_B_iso_or_equiv
  _atom_site_type_symbol
  H1       1.0000 0.01649  0.14124  0.67984  Biso   1.000  H
  H2       1.0000 0.98351  0.64124  0.82016  Biso   1.000  H
  H3       1.0000 0.24863  0.70434  0.45932  Biso   1.000  H
  H4       1.0000 0.01649  0.35876  0.17984  Biso   1.000  H
  H5       1.0000 0.98351  0.85876  0.32016  Biso   1.000  H
  H6       1.0000 0.92288  0.51046  0.68155  Biso   1.000  H
  H7       1.0000 0.07712  0.01046  0.81845  Biso   1.000  H
  H8       1.0000 0.07712  0.48954  0.31845  Biso   1.000  H
  H9       1.0000 0.92288  0.98954  0.18155  Biso   1.000  H
  H10      1.0000 0.59748  0.04369  0.73548  Biso   1.000  H
  H11      1.0000 0.40252  0.54369  0.76452  Biso   1.000  H
  H12      1.0000 0.40252  0.95631  0.26452  Biso   1.000  H
  H13      1.0000 0.59748  0.45631  0.23548  Biso   1.000  H
  H14      1.0000 0.48695  0.13267  0.80424  Biso   1.000  H
  H15      1.0000 0.51305  0.63267  0.69576  Biso   1.000  H
  H16      1.0000 0.54732  0.75000  0.95082  Biso   1.000  H
  H17      1.0000 0.51305  0.86733  0.19576  Biso   1.000  H
  H18      1.0000 0.74861  0.35956  0.81316  Biso   1.000  H
  H19      1.0000 0.25139  0.85956  0.68684  Biso   1.000  H
  H20      1.0000 0.25139  0.64044  0.18684  Biso   1.000  H
  H21      1.0000 0.74861  0.14044  0.31316  Biso   1.000  H
  H22      1.0000 0.63998  0.44598  0.87823  Biso   1.000  H
  H23      1.0000 0.36002  0.94598  0.62177  Biso   1.000  H
  H24      1.0000 0.36002  0.55402  0.12177  Biso   1.000  H
  H25      1.0000 0.63998  0.05402  0.37823  Biso   1.000  H
  H26      1.0000 0.69724  0.48744  0.57253  Biso   1.000  H
  H27      1.0000 0.30276  0.98744  0.92747  Biso   1.000  H
  H28      1.0000 0.30276  0.51256  0.42747  Biso   1.000  H
  H29      1.0000 0.69724  0.01256  0.07253  Biso   1.000  H
  H30      1.0000 0.75137  0.29566  0.54068  Biso   1.000  H
  H31      1.0000 0.24863  0.79566  0.95932  Biso   1.000  H
  H32      1.0000 0.48695  0.36733  0.30424  Biso   1.000  H
  H33      1.0000 0.45268  0.25000  0.54918  Biso   1.000  H
  H34      1.0000 0.75137  0.20434  0.04068  Biso   1.000  H
  H35      1.0000 0.54732  0.75000  0.45082  Biso   1.000  H
  H36      1.0000 0.20340  0.35067  0.65523  Biso   1.000  H
  H37      1.0000 0.79660  0.85067  0.84477  Biso   1.000  H
  H38      1.0000 0.79660  0.64933  0.34477  Biso   1.000  H
  H39      1.0000 0.20340  0.14933  0.15523  Biso   1.000  H
  H40      1.0000 0.16557  0.50597  0.74803  Biso   1.000  H
  H41      1.0000 0.83443  0.00597  0.75197  Biso   1.000  H
  H42      1.0000 0.83443  0.49403  0.25197  Biso   1.000  H
  H43      1.0000 0.16557  0.99403  0.24803  Biso   1.000  H
  H44      1.0000 0.45268  0.25000  0.04918  Biso   1.000  H
  H45      1.0000 0.85049  0.58387  0.97412  Biso   1.000  H
  H46      1.0000 0.85049  0.91613  0.47412  Biso   1.000  H
  H47      1.0000 0.14951  0.41613  0.02588  Biso   1.000  H
  H48      1.0000 0.05556  0.24569  0.43048  Biso   1.000  H
  H49      1.0000 0.94444  0.74569  0.06952  Biso   1.000  H
  H50      1.0000 0.94444  0.75431  0.56952  Biso   1.000  H
  H51      1.0000 0.14951  0.08387  0.52588  Biso   1.000  H
  H52      1.0000 0.65997  0.78208  0.61256  Biso   1.000  H
  H53      1.0000 0.05556  0.25431  0.93048  Biso   1.000  H
  H54      1.0000 0.65997  0.71792  0.11256  Biso   1.000  H
  H55      1.0000 0.34003  0.21792  0.38744  Biso   1.000  H
  H56      1.0000 0.34003  0.28208  0.88744  Biso   1.000  H
  O1       1.0000 0.75446  0.93555  0.75906  Biso   1.000  O
  O2       1.0000 0.75446  0.56445  0.25906  Biso   1.000  O
  O3       1.0000 0.24554  0.06445  0.24094  Biso   1.000  O
  O4       1.0000 0.99832  0.59878  0.72416  Biso   1.000  O
  O5       1.0000 0.00168  0.09878  0.77584  Biso   1.000  O
  O6       1.0000 0.76564  0.10713  0.11765  Biso   1.000  O
  O7       1.0000 0.23436  0.60713  0.38235  Biso   1.000  O
  O8       1.0000 0.23436  0.89287  0.88235  Biso   1.000  O
  O9       1.0000 0.76564  0.39287  0.61765  Biso   1.000  O
  O10      1.0000 0.00168  0.40122  0.27584  Biso   1.000  O
  O11      1.0000 0.99832  0.90122  0.22416  Biso   1.000  O
  O12      1.0000 0.50301  0.40463  0.20761  Biso   1.000  O
  O13      1.0000 0.09768  0.19196  0.53431  Biso   1.000  O
  O14      1.0000 0.90232  0.69196  0.96569  Biso   1.000  O
  O15      1.0000 0.90232  0.80804  0.46569  Biso   1.000  O
  O16      1.0000 0.73158  0.11366  0.41151  Biso   1.000  O
  O17      1.0000 0.26842  0.61366  0.08849  Biso   1.000  O
  O18      1.0000 0.26842  0.88634  0.58849  Biso   1.000  O
  O19      1.0000 0.73158  0.38634  0.91151  Biso   1.000  O
  O20      1.0000 0.09768  0.30804  0.03431  Biso   1.000  O
  O21      1.0000 0.59543  0.80883  0.05074  Biso   1.000  O
  O22      1.0000 0.40457  0.30883  0.44926  Biso   1.000  O
  O23      1.0000 0.40457  0.19117  0.94926  Biso   1.000  O
  O24      1.0000 0.59543  0.69117  0.55074  Biso   1.000  O
  O25      1.0000 0.50301  0.09537  0.70761  Biso   1.000  O
  O26      1.0000 0.49699  0.59537  0.79239  Biso   1.000  O
  O27      1.0000 0.49699  0.90463  0.29239  Biso   1.000  O
  O28      1.0000 0.24554  0.43555  0.74094  Biso   1.000  O
