
#######################################################################
#
#                 Cambridge Crystallographic Data Centre
#                                CCDC 
#
#######################################################################
#
# If this CIF has been generated from an entry in the Cambridge 
# Structural Database, then it will include bibliographic, chemical, 
# crystal, experimental, refinement or atomic coordinate data resulting 
# from the CCDC's data processing and validation procedures.
#
#######################################################################

data_61_2_8842-hse3c
_symmetry_cell_setting           triclinic
_symmetry_space_group_name_H-M   'P 1'
_symmetry_Int_Tables_number      1
_space_group_name_Hall           'P 1'
loop_
_symmetry_equiv_pos_site_id
_symmetry_equiv_pos_as_xyz
1 x,y,z
_cell_length_a                   7.50678178
_cell_length_b                   7.47546256
_cell_length_c                   7.49387101
_cell_angle_alpha                91.828407
_cell_angle_beta                 90.346088
_cell_angle_gamma                89.482119
_cell_volume                     420.293
loop_
_atom_site_label
_atom_site_type_symbol
_atom_site_fract_x
_atom_site_fract_y
_atom_site_fract_z
O1 O 0.1170013050678 0.1045205180122 0.1025914531741
H26 H 0.04550888694971 0.2161795672184 0.1049866775560
H29 H 0.2209297537899 0.1217878012173 0.02582783695963
O2 O 0.4176384080431 -0.08793445098127 -0.4166812365463
H20 H 0.4953429906194 -0.01252747013663 -0.4894614605399
H23 H 0.4869713801653 -0.1988391276871 -0.3999934301195
O3 O -0.08764237819812 -0.1055802862993 -0.1023532471481
H19 H -0.01263177443176 -0.02836793088027 -0.02344190572025
H43 H -0.1017104692026 -0.03683284010737 -0.2115853553530
O4 O 0.4050491645362 -0.3934768364479 0.08450969695292
H17 H 0.4822849340515 -0.4715817863096 0.007851768046398
H28 H 0.4735509530723 -0.2824646461685 0.1012056541492
O5 O 0.1156996966287 0.3912342492441 -0.4241944308810
H27 H 0.04592708913511 0.2829377218352 -0.4017606353533
H38 H 0.1262435455270 0.4615796725570 -0.3113071646955
O6 O -0.3781008207091 0.1137874206247 0.3896836554964
H21 H -0.4501953219604 0.2221229554735 0.3701525772902
H44 H -0.3719097302463 0.04380834196541 0.2757212326936
O7 O -0.3895056039656 0.3995769579214 -0.1212492179235
H35 H -0.2763189893674 0.3899994243993 -0.05437604461550
H39 H -0.3706282849124 0.4731988640856 -0.2265495475318
O8 O -0.09238911032765 -0.4012810154679 0.3837841084564
H18 H -0.01540391189129 -0.4809058446714 0.4545914867182
H24 H -0.02150711900975 -0.2925628484823 0.3718603453996
O9 O 0.4121933882000 0.4057688877173 0.3762898489385
H33 H 0.2986655568832 0.3914852210325 0.4389029879547
H37 H 0.3934026971312 0.4800922785713 0.2712833463694
O10 O 0.1143631733031 -0.4022680394583 -0.1244265299958
H22 H 0.04506920741441 -0.2892879340961 -0.1282588702412
H32 H 0.2218083183579 -0.3816071017215 -0.05021509546126
O11 O -0.3851920772940 -0.3945060379654 -0.4073017502935
H36 H -0.2751976278279 -0.3812083400625 -0.4766485513588
H47 H -0.4619046665205 -0.4691032167827 -0.4870534395562
O12 O 0.1174661642952 -0.1065417142924 0.3870370023791
H30 H 0.2317837304320 -0.1115927983175 0.4525858986637
H40 H 0.1321459204789 -0.03028553405934 0.2837259187874
O13 O 0.4014655526367 0.1117296945508 -0.1130788708403
H25 H 0.4755240904866 0.2177448320857 -0.1308888614753
H41 H 0.3963069446437 0.04144692893042 -0.2268672616589
O14 O -0.08709121531089 0.3990334103285 0.07507281346318
H42 H -0.1036375838282 0.4709489960622 0.1864284970479
H48 H -0.01029864185047 0.4734025114667 0.0004221930756576
O15 O -0.08368587638478 0.09570564090830 -0.3980942111059
H34 H -0.1931783860553 0.1152200817092 -0.4675074879601
H45 H -0.009752401579403 0.01644618220483 -0.4767849247295
O16 O -0.3955988917310 -0.09025894537299 0.09045718272756
H31 H -0.2847648717469 -0.1091314224425 0.02267481928068
H46 H -0.4714070974973 -0.01508199191056 0.01379252952442

#END
