data_61_2_8842-hse3c
_cell_length_a       7.50678
_cell_length_b       7.47546
_cell_length_c       7.49387
_cell_angle_alpha    91.8284
_cell_angle_beta     90.3461
_cell_angle_gamma    89.4821

_symmetry_space_group_name_H-M    "P 1"
_symmetry_int_tables_number       1

loop_
  _symmetry_equiv_pos_as_xyz
  'x, y, z'

loop_
  _atom_site_label
  _atom_site_occupancy
  _atom_site_fract_x
  _atom_site_fract_y
  _atom_site_fract_z
  _atom_site_thermal_displace_type
  _atom_site_B_iso_or_equiv
  _atom_site_type_symbol
  H1       1.0000 0.97849  0.70744  0.37186  Biso   1.000  H
  H2       1.0000 0.98460  0.51909  0.45459  Biso   1.000  H
  H3       1.0000 0.71524  0.89087  0.02267  Biso   1.000  H
  H4       1.0000 0.29867  0.39149  0.43890  Biso   1.000  H
  H5       1.0000 0.39340  0.48009  0.27128  Biso   1.000  H
  H6       1.0000 0.04507  0.71071  0.87174  Biso   1.000  H
  H7       1.0000 0.22181  0.61839  0.94978  Biso   1.000  H
  H8       1.0000 0.72480  0.61879  0.52335  Biso   1.000  H
  H9       1.0000 0.62937  0.47320  0.77345  Biso   1.000  H
  H10      1.0000 0.53810  0.53090  0.51295  Biso   1.000  H
  H11      1.0000 0.13215  0.96971  0.28373  Biso   1.000  H
  H12      1.0000 0.47552  0.21774  0.86911  Biso   1.000  H
  H13      1.0000 0.39631  0.04145  0.77313  Biso   1.000  H
  H14      1.0000 0.89636  0.47095  0.18643  Biso   1.000  H
  H15      1.0000 0.98970  0.47340  0.00042  Biso   1.000  H
  H16      1.0000 0.80682  0.11522  0.53249  Biso   1.000  H
  H17      1.0000 0.99025  0.01645  0.52322  Biso   1.000  H
  H18      1.0000 0.23178  0.88841  0.45259  Biso   1.000  H
  H19      1.0000 0.72368  0.39000  0.94562  Biso   1.000  H
  H20      1.0000 0.52859  0.98492  0.01379  Biso   1.000  H
  H21      1.0000 0.62809  0.04381  0.27572  Biso   1.000  H
  H22      1.0000 0.89829  0.96317  0.78841  Biso   1.000  H
  H23      1.0000 0.54980  0.22212  0.37015  Biso   1.000  H
  H24      1.0000 0.04551  0.21618  0.10499  Biso   1.000  H
  H25      1.0000 0.22093  0.12179  0.02583  Biso   1.000  H
  H26      1.0000 0.12624  0.46158  0.68869  Biso   1.000  H
  H27      1.0000 0.04593  0.28294  0.59824  Biso   1.000  H
  H28      1.0000 0.48697  0.80116  0.60001  Biso   1.000  H
  H29      1.0000 0.98737  0.97163  0.97656  Biso   1.000  H
  H30      1.0000 0.47355  0.71754  0.10121  Biso   1.000  H
  H31      1.0000 0.49534  0.98747  0.51054  Biso   1.000  H
  H32      1.0000 0.48228  0.52842  0.00785  Biso   1.000  H
  O1       1.0000 0.41764  0.91207  0.58332  Biso   1.000  O
  O2       1.0000 0.91631  0.09571  0.60191  Biso   1.000  O
  O3       1.0000 0.60440  0.90974  0.09046  Biso   1.000  O
  O4       1.0000 0.91291  0.39903  0.07507  Biso   1.000  O
  O5       1.0000 0.91236  0.89442  0.89765  Biso   1.000  O
  O6       1.0000 0.11747  0.89346  0.38704  Biso   1.000  O
  O7       1.0000 0.61049  0.39958  0.87875  Biso   1.000  O
  O8       1.0000 0.40505  0.60652  0.08451  Biso   1.000  O
  O9       1.0000 0.61481  0.60549  0.59270  Biso   1.000  O
  O10      1.0000 0.11570  0.39123  0.57581  Biso   1.000  O
  O11      1.0000 0.11436  0.59773  0.87557  Biso   1.000  O
  O12      1.0000 0.41219  0.40577  0.37629  Biso   1.000  O
  O13      1.0000 0.62190  0.11379  0.38968  Biso   1.000  O
  O14      1.0000 0.90761  0.59872  0.38378  Biso   1.000  O
  O15      1.0000 0.40147  0.11173  0.88692  Biso   1.000  O
  O16      1.0000 0.11700  0.10452  0.10259  Biso   1.000  O
